
     RDKit          3D

 32 34  0  0  0  0  0  0  0  0999 V2000
   -1.7019   -0.2688    1.5806 O   0  0  0  0  0  0  0  0  0  0  0  0
   -1.0233    0.6187    2.4855 C   0  0  0  0  0  0  0  0  0  0  0  0
    0.4179    0.9413    2.0363 C   0  0  0  0  0  0  0  0  0  0  0  0
    1.1243   -0.2976    1.9727 O   0  0  0  0  0  0  0  0  0  0  0  0
    2.4133   -0.2900    1.4003 C   0  0  0  0  0  0  0  0  0  0  0  0
    2.9333   -1.6028    1.1082 O   0  0  0  0  0  0  0  0  0  0  0  0
    2.0723   -2.7525    1.1916 C   0  0  0  0  0  0  0  0  0  0  0  0
    0.6298   -2.6252    0.6734 C   0  0  0  0  0  0  0  0  0  0  0  0
    0.5909   -2.0019   -0.6192 O   0  0  0  0  0  0  0  0  0  0  0  0
   -0.7126   -1.5833   -1.0214 C   0  0  0  0  0  0  0  0  0  0  0  0
   -0.8037   -0.1556   -0.7991 O   0  0  0  0  0  0  0  0  0  0  0  0
   -0.7092    0.6271   -2.0223 C   0  0  0  0  0  0  0  0  0  0  0  0
    0.5670    0.4779   -2.7602 C   0  0  0  0  0  0  0  0  0  0  0  0
    1.5797    0.3435   -3.3109 N   0  0  0  0  0  0  0  0  0  0  0  0
   -0.9739    2.0729   -1.6434 C   0  0  0  0  0  0  0  0  0  0  0  0
   -0.2307    2.6996   -0.6284 C   0  0  0  0  0  0  0  0  0  0  0  0
   -0.4742    4.0299   -0.2863 C   0  0  0  0  0  0  0  0  0  0  0  0
   -1.4595    4.7522   -0.9547 C   0  0  0  0  0  0  0  0  0  0  0  0
   -2.2015    4.1481   -1.9671 C   0  0  0  0  0  0  0  0  0  0  0  0
   -1.9615    2.8164   -2.3116 C   0  0  0  0  0  0  0  0  0  0  0  0
   -1.8805   -2.1726   -0.1982 C   0  0  0  0  0  0  0  0  0  0  0  0
   -2.0705   -1.2712    0.9478 O   0  0  0  0  0  0  0  0  0  0  0  0
   -1.6308   -3.6105    0.2941 C   0  0  0  0  0  0  0  0  0  0  0  0
   -2.1746   -4.5746   -0.6247 O   0  0  0  0  0  0  0  0  0  0  0  0
   -0.1347   -3.9400    0.5395 C   0  0  0  0  0  0  0  0  0  0  0  0
    0.0178   -4.7867    1.6768 O   0  0  0  0  0  0  0  0  0  0  0  0
    2.5223    0.4903    0.0783 C   0  0  0  0  0  0  0  0  0  0  0  0
    3.8970    0.6737   -0.2925 O   0  0  0  0  0  0  0  0  0  0  0  0
    1.8326    1.8520    0.1363 C   0  0  0  0  0  0  0  0  0  0  0  0
    1.6895    2.4413   -1.1825 O   0  0  0  0  0  0  0  0  0  0  0  0
    0.4241    1.7204    0.7113 C   0  0  0  0  0  0  0  0  0  0  0  0
   -0.4073    1.0772   -0.2875 O   0  0  0  0  0  0  0  0  0  0  0  0
  1  2  1  0
  2  3  1  0
  3  4  1  0
  4  5  1  0
  5  6  1  0
  6  7  1  0
  7  8  1  0
  8  9  1  0
  9 10  1  0
 10 11  1  0
 11 12  1  0
 12 13  1  0
 13 14  3  0
 12 15  1  0
 15 16  2  0
 16 17  1  0
 17 18  2  0
 18 19  1  0
 19 20  2  0
 10 21  1  0
 21 22  1  0
 21 23  1  0
 23 24  1  0
 23 25  1  0
 25 26  1  0
  5 27  1  0
 27 28  1  0
 27 29  1  0
 29 30  1  0
 29 31  1  0
 31 32  1  0
 20 15  1  0
 25  8  1  0
 31  3  1  0
M  END
>  <target>  (1) 
-0.77

$$$$

     RDKit          3D

 15 16  0  0  0  0  0  0  0  0999 V2000
   -3.6100   -1.4264    1.0388 C   0  0  0  0  0  0  0  0  0  0  0  0
   -3.1701   -0.0614    0.6705 C   0  0  0  0  0  0  0  0  0  0  0  0
   -4.1402    0.8942    0.6711 O   0  0  0  0  0  0  0  0  0  0  0  0
   -3.5527    2.0595    0.3145 C   0  0  0  0  0  0  0  0  0  0  0  0
   -2.2116    1.8684    0.0825 C   0  0  0  0  0  0  0  0  0  0  0  0
   -1.9428    0.4814    0.3108 C   0  0  0  0  0  0  0  0  0  0  0  0
   -0.6966   -0.2859    0.2160 C   0  0  0  0  0  0  0  0  0  0  0  0
   -0.6765   -1.4834    0.4768 O   0  0  0  0  0  0  0  0  0  0  0  0
    0.3956    0.4642   -0.1836 N   0  0  0  0  0  0  0  0  0  0  0  0
    1.7251    0.0277   -0.3668 C   0  0  0  0  0  0  0  0  0  0  0  0
    2.1586   -1.2827   -0.1582 C   0  0  0  0  0  0  0  0  0  0  0  0
    3.4987   -1.6281   -0.3641 C   0  0  0  0  0  0  0  0  0  0  0  0
    4.4167   -0.6672   -0.7800 C   0  0  0  0  0  0  0  0  0  0  0  0
    3.9962    0.6424   -0.9909 C   0  0  0  0  0  0  0  0  0  0  0  0
    2.6577    0.9874   -0.7852 C   0  0  0  0  0  0  0  0  0  0  0  0
  1  2  1  0
  2  3  1  0
  3  4  1  0
  4  5  2  0
  5  6  1  0
  6  7  1  0
  7  8  2  0
  7  9  1  0
  9 10  1  0
 10 11  2  0
 11 12  1  0
 12 13  2  0
 13 14  1  0
 14 15  2  0
  6  2  2  0
 15 10  1  0
M  END
>  <target>  (2) 
-3.3

$$$$

     RDKit          3D

 11 10  0  0  0  0  0  0  0  0999 V2000
    3.7959    0.4262   -0.6141 C   0  0  0  0  0  0  0  0  0  0  0  0
    2.4593    0.0308   -0.0412 C   0  0  0  0  0  0  0  0  0  0  0  0
    2.3747   -1.4076    0.3901 C   0  0  0  0  0  0  0  0  0  0  0  0
    1.4573    0.9275    0.0450 C   0  0  0  0  0  0  0  0  0  0  0  0
    0.0815    0.7148    0.6152 C   0  0  0  0  0  0  0  0  0  0  0  0
   -0.9628    0.5625   -0.4957 C   0  0  0  0  0  0  0  0  0  0  0  0
   -2.3510    0.3081    0.0546 C   0  0  0  0  0  0  0  0  0  0  0  0
   -3.1301    1.5494    0.4091 C   0  0  0  0  0  0  0  0  0  0  0  0
   -2.9114   -0.9053    0.2189 C   0  0  0  0  0  0  0  0  0  0  0  0
   -2.2515   -2.1997   -0.0617 C   0  0  0  0  0  0  0  0  0  0  0  0
   -2.8482   -3.2591    0.0909 O   0  0  0  0  0  0  0  0  0  0  0  0
  1  2  1  0
  2  3  1  0
  2  4  2  3
  4  5  1  0
  5  6  1  0
  6  7  1  0
  7  8  1  0
  7  9  2  3
  9 10  1  0
 10 11  2  0
M  END
>  <target>  (3) 
-2.06

$$$$

     RDKit          3D

 22 26  0  0  0  0  0  0  0  0999 V2000
    5.7193    0.4926   -0.3959 C   0  0  0  0  0  0  0  0  0  0  0  0
    5.0171    1.6665   -0.6135 C   0  0  0  0  0  0  0  0  0  0  0  0
    3.6218    1.6726   -0.5132 C   0  0  0  0  0  0  0  0  0  0  0  0
    2.8719    0.5086   -0.1921 C   0  0  0  0  0  0  0  0  0  0  0  0
    3.6213   -0.6707    0.0233 C   0  0  0  0  0  0  0  0  0  0  0  0
    5.0237   -0.6696   -0.0792 C   0  0  0  0  0  0  0  0  0  0  0  0
    2.9620   -1.8519    0.3417 C   0  0  0  0  0  0  0  0  0  0  0  0
    1.5720   -1.8862    0.4508 C   0  0  0  0  0  0  0  0  0  0  0  0
    0.7578   -0.7490    0.2498 C   0  0  0  0  0  0  0  0  0  0  0  0
    1.4298    0.4607   -0.0761 C   0  0  0  0  0  0  0  0  0  0  0  0
    0.6258    1.5934   -0.2769 C   0  0  0  0  0  0  0  0  0  0  0  0
   -0.7659    1.5563   -0.1670 C   0  0  0  0  0  0  0  0  0  0  0  0
   -1.4674    0.3834    0.1526 C   0  0  0  0  0  0  0  0  0  0  0  0
   -2.9103    0.3544    0.2644 C   0  0  0  0  0  0  0  0  0  0  0  0
   -3.7618    1.4757    0.0697 C   0  0  0  0  0  0  0  0  0  0  0  0
   -5.1533    1.3953    0.1895 C   0  0  0  0  0  0  0  0  0  0  0  0
   -5.7495    0.1868    0.5096 C   0  0  0  0  0  0  0  0  0  0  0  0
   -4.9523   -0.9356    0.7085 C   0  0  0  0  0  0  0  0  0  0  0  0
   -3.5531   -0.8620    0.5897 C   0  0  0  0  0  0  0  0  0  0  0  0
   -2.7905   -2.0053    0.7959 C   0  0  0  0  0  0  0  0  0  0  0  0
   -1.4007   -1.9655    0.6855 C   0  0  0  0  0  0  0  0  0  0  0  0
   -0.6895   -0.7876    0.3641 C   0  0  0  0  0  0  0  0  0  0  0  0
  1  2  2  0
  2  3  1  0
  3  4  2  0
  4  5  1  0
  5  6  2  0
  5  7  1  0
  7  8  2  0
  8  9  1  0
  9 10  2  0
 10 11  1  0
 11 12  2  0
 12 13  1  0
 13 14  2  0
 14 15  1  0
 15 16  2  0
 16 17  1  0
 17 18  2  0
 18 19  1  0
 19 20  2  0
 20 21  1  0
 21 22  2  0
  6  1  1  0
 10  4  1  0
 22  9  1  0
 22 13  1  0
 19 14  1  0
M  END
>  <target>  (4) 
-7.87

$$$$

     RDKit          3D

  5  5  0  0  0  0  0  0  0  0999 V2000
    0.7161   -0.7056   -0.0121 C   0  0  0  0  0  0  0  0  0  0  0  0
   -0.7083   -0.7129    0.0317 C   0  0  0  0  0  0  0  0  0  0  0  0
   -1.2316    0.5616    0.0300 C   0  0  0  0  0  0  0  0  0  0  0  0
   -0.0097    1.7589   -0.0243 S   0  0  0  0  0  0  0  0  0  0  0  0
    1.2254    0.5741   -0.0456 C   0  0  0  0  0  0  0  0  0  0  0  0
  1  2  1  0
  2  3  2  0
  3  4  1  0
  4  5  1  0
  5  1  2  0
M  END
>  <target>  (5) 
-1.33

$$$$

     RDKit          3D

  9 10  0  0  0  0  0  0  0  0999 V2000
   -1.7643   -0.8044   -0.1535 C   0  0  0  0  0  0  0  0  0  0  0  0
   -1.9074    0.5606    0.0749 C   0  0  0  0  0  0  0  0  0  0  0  0
   -0.7872    1.3842    0.2251 C   0  0  0  0  0  0  0  0  0  0  0  0
    0.4863    0.7970    0.1392 C   0  0  0  0  0  0  0  0  0  0  0  0
    2.0371    1.5366    0.2796 S   0  0  0  0  0  0  0  0  0  0  0  0
    2.7755    0.0127    0.0305 C   0  0  0  0  0  0  0  0  0  0  0  0
    1.9690   -1.0077   -0.1496 N   0  0  0  0  0  0  0  0  0  0  0  0
    0.6546   -0.5716   -0.0896 C   0  0  0  0  0  0  0  0  0  0  0  0
   -0.4916   -1.3790   -0.2373 C   0  0  0  0  0  0  0  0  0  0  0  0
  1  2  2  0
  2  3  1  0
  3  4  2  0
  4  5  1  0
  5  6  1  0
  6  7  2  0
  7  8  1  0
  8  9  2  0
  8  4  1  0
  9  1  1  0
M  END
>  <target>  (6) 
-1.5

$$$$

     RDKit          3D

 17 18  0  0  0  0  0  0  0  0999 V2000
    4.9511   -1.1581   -1.2907 Cl  0  0  0  0  0  0  0  0  0  0  0  0
    3.3300   -0.7789   -0.8589 C   0  0  0  0  0  0  0  0  0  0  0  0
    2.4637   -0.2645   -1.8166 C   0  0  0  0  0  0  0  0  0  0  0  0
    1.1464    0.0433   -1.4644 C   0  0  0  0  0  0  0  0  0  0  0  0
    0.1243    0.6806   -2.7103 Cl  0  0  0  0  0  0  0  0  0  0  0  0
    0.6720   -0.1572   -0.1510 C   0  0  0  0  0  0  0  0  0  0  0  0
    1.5787   -0.6807    0.7946 C   0  0  0  0  0  0  0  0  0  0  0  0
    1.1095   -0.9691    2.4376 Cl  0  0  0  0  0  0  0  0  0  0  0  0
    2.8965   -0.9892    0.4449 C   0  0  0  0  0  0  0  0  0  0  0  0
   -0.7228    0.1691    0.2205 C   0  0  0  0  0  0  0  0  0  0  0  0
   -1.0738    1.4488    0.6978 C   0  0  0  0  0  0  0  0  0  0  0  0
    0.1061    2.7056    0.8747 Cl  0  0  0  0  0  0  0  0  0  0  0  0
   -2.3934    1.7563    1.0489 C   0  0  0  0  0  0  0  0  0  0  0  0
   -3.3920    0.7934    0.9314 C   0  0  0  0  0  0  0  0  0  0  0  0
   -3.0721   -0.4779    0.4628 C   0  0  0  0  0  0  0  0  0  0  0  0
   -1.7532   -0.7876    0.1111 C   0  0  0  0  0  0  0  0  0  0  0  0
   -1.4427   -2.3930   -0.4628 Cl  0  0  0  0  0  0  0  0  0  0  0  0
  1  2  1  0
  2  3  2  0
  3  4  1  0
  4  5  1  0
  4  6  2  0
  6  7  1  0
  7  8  1  0
  7  9  2  0
  6 10  1  0
 10 11  2  0
 11 12  1  0
 11 13  1  0
 13 14  2  0
 14 15  1  0
 15 16  2  0
 16 17  1  0
  9  2  1  0
 16 10  1  0
M  END
>  <target>  (7) 
-7.32

$$$$

     RDKit          3D

 20 23  0  0  0  0  0  0  0  0999 V2000
   -3.4904    1.5778   -0.5818 C   0  0  0  0  0  0  0  0  0  0  0  0
   -2.2557    0.9123    0.0746 C   0  0  0  0  0  0  0  0  0  0  0  0
   -1.3014    2.0389    0.4989 C   0  0  0  0  0  0  0  0  0  0  0  0
    0.1030    1.5767    0.8741 C   0  0  0  0  0  0  0  0  0  0  0  0
    0.7346    0.7383   -0.2503 C   0  0  0  0  0  0  0  0  0  0  0  0
   -0.1571   -0.5045   -0.5036 C   0  0  0  0  0  0  0  0  0  0  0  0
    0.5041   -1.3630   -1.5924 C   0  0  0  0  0  0  0  0  0  0  0  0
    1.8187   -1.9325   -1.0721 C   0  0  0  0  0  0  0  0  0  0  0  0
    2.6939   -0.8997   -0.4083 C   0  0  0  0  0  0  0  0  0  0  0  0
    4.0392   -1.2338   -0.1694 C   0  0  0  0  0  0  0  0  0  0  0  0
    4.8898   -0.3170    0.4344 C   0  0  0  0  0  0  0  0  0  0  0  0
    6.1978   -0.6109    0.6771 O   0  0  0  0  0  0  0  0  0  0  0  0
    4.4279    0.9350    0.8012 C   0  0  0  0  0  0  0  0  0  0  0  0
    3.0912    1.2710    0.5794 C   0  0  0  0  0  0  0  0  0  0  0  0
    2.1923    0.3539    0.0040 C   0  0  0  0  0  0  0  0  0  0  0  0
   -1.6080   -0.1145   -0.8880 C   0  0  0  0  0  0  0  0  0  0  0  0
   -2.5611   -1.3257   -0.7879 C   0  0  0  0  0  0  0  0  0  0  0  0
   -3.1939   -1.2695    0.6060 C   0  0  0  0  0  0  0  0  0  0  0  0
   -2.6728    0.0114    1.2565 C   0  0  0  0  0  0  0  0  0  0  0  0
   -3.6563    0.6142    2.0779 O   0  0  0  0  0  0  0  0  0  0  0  0
  1  2  1  0
  2  3  1  0
  3  4  1  0
  4  5  1  0
  5  6  1  0
  6  7  1  0
  7  8  1  0
  8  9  1  0
  9 10  2  0
 10 11  1  0
 11 12  1  0
 11 13  2  0
 13 14  1  0
 14 15  2  0
  6 16  1  0
 16 17  1  0
 17 18  1  0
 18 19  1  0
 19 20  1  0
 19  2  1  0
 16  2  1  0
 15  5  1  0
 15  9  1  0
M  END
>  <target>  (8) 
-5.03

$$$$

     RDKit          3D

 19 23  0  0  0  0  0  0  0  0999 V2000
    2.4486    2.6587    0.0408 Cl  0  0  0  0  0  0  0  0  0  0  0  0
    1.9614    1.0514   -0.1836 C   0  0  0  0  0  0  0  0  0  0  0  0
    1.7376    0.4128   -1.3404 C   0  0  0  0  0  0  0  0  0  0  0  0
    1.8771    1.0281   -2.9130 Cl  0  0  0  0  0  0  0  0  0  0  0  0
    1.2696   -0.9850   -1.0054 C   0  0  0  0  0  0  0  0  0  0  0  0
    1.4105   -2.1749   -2.2884 Cl  0  0  0  0  0  0  0  0  0  0  0  0
   -0.1553   -0.9444   -0.3637 C   0  0  0  0  0  0  0  0  0  0  0  0
   -1.3412   -0.1411   -0.9682 C   0  0  0  0  0  0  0  0  0  0  0  0
   -1.1090    1.3129   -0.5102 C   0  0  0  0  0  0  0  0  0  0  0  0
   -0.9648    0.9328    0.9773 C   0  0  0  0  0  0  0  0  0  0  0  0
   -2.3417    0.2846    1.1758 C   0  0  0  0  0  0  0  0  0  0  0  0
   -2.4558   -1.1336    1.1010 O   0  0  0  0  0  0  0  0  0  0  0  0
   -2.5954   -0.4392   -0.1352 C   0  0  0  0  0  0  0  0  0  0  0  0
    0.1085   -0.1917    0.9998 C   0  0  0  0  0  0  0  0  0  0  0  0
    1.6454    0.0873    0.9370 C   0  0  0  0  0  0  0  0  0  0  0  0
    2.3377    0.4706    2.5040 Cl  0  0  0  0  0  0  0  0  0  0  0  0
    2.1723   -1.2301    0.2587 C   0  0  0  0  0  0  0  0  0  0  0  0
    1.8264   -2.7478    1.1635 Cl  0  0  0  0  0  0  0  0  0  0  0  0
    3.9529   -1.2560   -0.0715 Cl  0  0  0  0  0  0  0  0  0  0  0  0
  1  2  1  0
  2  3  2  0
  3  4  1  0
  3  5  1  0
  5  6  1  0
  5  7  1  0
  7  8  1  0
  8  9  1  0
  9 10  1  0
 10 11  1  0
 11 12  1  0
 12 13  1  0
 10 14  1  0
 14 15  1  0
 15 16  1  0
 15 17  1  0
 17 18  1  0
 17 19  1  0
 13  8  1  0
 13 11  1  0
 14  7  1  0
 15  2  1  0
 17  5  1  0
M  END
>  <target>  (9) 
-6.29

$$$$

     RDKit          3D

 29 33  0  0  0  0  0  0  0  0999 V2000
    7.5578   -0.3092    0.5244 C   0  0  0  0  0  0  0  0  0  0  0  0
    6.5508    0.4586    1.1768 O   0  0  0  0  0  0  0  0  0  0  0  0
    5.2694    0.2063    0.7660 C   0  0  0  0  0  0  0  0  0  0  0  0
    4.3120    0.2373    1.7810 C   0  0  0  0  0  0  0  0  0  0  0  0
    2.9654   -0.0095    1.5009 C   0  0  0  0  0  0  0  0  0  0  0  0
    2.1285    0.0014    2.5867 O   0  0  0  0  0  0  0  0  0  0  0  0
    0.8604   -0.6158    2.3609 C   0  0  0  0  0  0  0  0  0  0  0  0
    0.2076   -0.0977    1.0885 C   0  0  0  0  0  0  0  0  0  0  0  0
   -1.1120   -0.6481    0.9669 O   0  0  0  0  0  0  0  0  0  0  0  0
   -1.7211   -0.2551   -0.1944 C   0  0  0  0  0  0  0  0  0  0  0  0
   -3.1002   -0.3258   -0.2603 C   0  0  0  0  0  0  0  0  0  0  0  0
   -4.0841   -0.7301    0.7714 C   0  0  0  0  0  0  0  0  0  0  0  0
   -5.3547   -0.7947   -0.0991 C   0  0  0  0  0  0  0  0  0  0  0  0
   -5.1352   -0.0175   -1.3090 O   0  0  0  0  0  0  0  0  0  0  0  0
   -3.7725    0.0865   -1.4005 C   0  0  0  0  0  0  0  0  0  0  0  0
   -3.1110    0.5770   -2.5100 C   0  0  0  0  0  0  0  0  0  0  0  0
   -1.7157    0.6296   -2.4723 C   0  0  0  0  0  0  0  0  0  0  0  0
   -1.0257    0.2040   -1.3220 C   0  0  0  0  0  0  0  0  0  0  0  0
    0.4576    0.2070   -1.2913 C   0  0  0  0  0  0  0  0  0  0  0  0
    1.0812    0.7113   -2.2188 O   0  0  0  0  0  0  0  0  0  0  0  0
    1.0746   -0.5071   -0.1013 C   0  0  0  0  0  0  0  0  0  0  0  0
    2.5344   -0.2387    0.1869 C   0  0  0  0  0  0  0  0  0  0  0  0
    3.5030   -0.2805   -0.8270 C   0  0  0  0  0  0  0  0  0  0  0  0
    4.8511   -0.0232   -0.5468 C   0  0  0  0  0  0  0  0  0  0  0  0
    5.7343   -0.0293   -1.5950 O   0  0  0  0  0  0  0  0  0  0  0  0
    5.7161    1.2427   -2.2474 C   0  0  0  0  0  0  0  0  0  0  0  0
   -6.6088   -0.2978    0.5942 C   0  0  0  0  0  0  0  0  0  0  0  0
   -6.7247    1.1842    0.8305 C   0  0  0  0  0  0  0  0  0  0  0  0
   -7.5920   -1.1373    0.9649 C   0  0  0  0  0  0  0  0  0  0  0  0
  1  2  1  0
  2  3  1  0
  3  4  2  0
  4  5  1  0
  5  6  1  0
  6  7  1  0
  7  8  1  0
  8  9  1  0
  9 10  1  0
 10 11  2  0
 11 12  1  0
 12 13  1  0
 13 14  1  0
 14 15  1  0
 15 16  2  0
 16 17  1  0
 17 18  2  0
 18 19  1  0
 19 20  2  0
 19 21  1  0
 21 22  1  0
 22 23  1  0
 23 24  2  0
 24 25  1  0
 25 26  1  0
 13 27  1  0
 27 28  1  0
 27 29  2  0
 15 11  1  0
 18 10  1  0
 21  8  1  0
 22  5  2  0
 24  3  1  0
M  END
>  <target>  (10) 
-4.42

$$$$

     RDKit          3D

  6  6  0  0  0  0  0  0  0  0999 V2000
   -1.4004    2.1477    0.0268 O   0  0  0  0  0  0  0  0  0  0  0  0
   -0.7079    1.1461    0.0075 C   0  0  0  0  0  0  0  0  0  0  0  0
   -1.1932   -0.2810   -0.0388 C   0  0  0  0  0  0  0  0  0  0  0  0
    0.0817   -1.0632   -0.3434 C   0  0  0  0  0  0  0  0  0  0  0  0
    1.1825   -0.1967    0.2355 C   0  0  0  0  0  0  0  0  0  0  0  0
    0.6699    1.1291    0.0779 N   0  0  0  0  0  0  0  0  0  0  0  0
  1  2  2  0
  2  3  1  0
  3  4  1  0
  4  5  1  0
  5  6  1  0
  6  2  1  0
M  END
>  <target>  (11) 
1.07

$$$$

     RDKit          3D

 11 12  0  0  0  0  0  0  0  0999 V2000
    4.0279   -1.1083   -0.1833 Cl  0  0  0  0  0  0  0  0  0  0  0  0
    2.4549   -0.4147   -0.0975 C   0  0  0  0  0  0  0  0  0  0  0  0
    2.3146    0.9675   -0.0181 C   0  0  0  0  0  0  0  0  0  0  0  0
    1.0389    1.5307    0.0515 C   0  0  0  0  0  0  0  0  0  0  0  0
   -0.1051    0.7159    0.0421 C   0  0  0  0  0  0  0  0  0  0  0  0
   -1.3947    1.2663    0.1115 C   0  0  0  0  0  0  0  0  0  0  0  0
   -2.5226    0.4440    0.1012 C   0  0  0  0  0  0  0  0  0  0  0  0
   -2.3761   -0.9378    0.0216 C   0  0  0  0  0  0  0  0  0  0  0  0
   -1.1013   -1.5018   -0.0480 C   0  0  0  0  0  0  0  0  0  0  0  0
    0.0440   -0.6893   -0.0388 C   0  0  0  0  0  0  0  0  0  0  0  0
    1.3328   -1.2420   -0.1083 C   0  0  0  0  0  0  0  0  0  0  0  0
  1  2  1  0
  2  3  2  0
  3  4  1  0
  4  5  2  0
  5  6  1  0
  6  7  2  0
  7  8  1  0
  8  9  2  0
  9 10  1  0
 10 11  2  0
 11  2  1  0
 10  5  1  0
M  END
>  <target>  (12) 
-4.14

$$$$

     RDKit          3D

  5  4  0  0  0  0  0  0  0  0999 V2000
   -2.2156   -0.3207    0.1258 C   0  0  0  0  0  0  0  0  0  0  0  0
   -0.7500   -0.5273    0.4751 C   0  0  0  0  0  0  0  0  0  0  0  0
    0.1294    0.5634   -0.1369 C   0  0  0  0  0  0  0  0  0  0  0  0
    1.5741    0.3638    0.2209 C   0  0  0  0  0  0  0  0  0  0  0  0
    2.5457    0.1439   -0.6738 C   0  0  0  0  0  0  0  0  0  0  0  0
  1  2  1  0
  2  3  1  0
  3  4  1  0
  4  5  2  0
M  END
>  <target>  (13) 
-2.68

$$$$

     RDKit          3D

 16 17  0  0  0  0  0  0  0  0999 V2000
   -1.5823    2.8461   -0.3652 C   0  0  0  0  0  0  0  0  0  0  0  0
   -0.3611    1.9700   -0.6391 C   0  0  0  0  0  0  0  0  0  0  0  0
   -0.4740    0.5096   -0.1224 C   0  0  0  0  0  0  0  0  0  0  0  0
   -0.6794    0.5005    1.4121 C   0  0  0  0  0  0  0  0  0  0  0  0
   -0.2475    1.3625    2.1768 O   0  0  0  0  0  0  0  0  0  0  0  0
   -1.3364   -0.5819    1.9351 N   0  0  0  0  0  0  0  0  0  0  0  0
   -1.6696   -1.6992    1.1236 C   0  0  0  0  0  0  0  0  0  0  0  0
   -2.2508   -1.2253   -0.0829 N   0  0  0  0  0  0  0  0  0  0  0  0
   -1.6768   -0.2013   -0.7893 C   0  0  0  0  0  0  0  0  0  0  0  0
   -2.1014    0.0580   -1.9147 O   0  0  0  0  0  0  0  0  0  0  0  0
    0.8573   -0.2060   -0.4974 C   0  0  0  0  0  0  0  0  0  0  0  0
    1.9692   -0.1792    0.3666 C   0  0  0  0  0  0  0  0  0  0  0  0
    3.1679   -0.8107    0.0233 C   0  0  0  0  0  0  0  0  0  0  0  0
    3.2884   -1.4672   -1.1968 C   0  0  0  0  0  0  0  0  0  0  0  0
    2.2146   -1.4815   -2.0806 C   0  0  0  0  0  0  0  0  0  0  0  0
    1.0149   -0.8508   -1.7396 C   0  0  0  0  0  0  0  0  0  0  0  0
  1  2  1  0
  2  3  1  0
  3  4  1  0
  4  5  2  0
  4  6  1  0
  6  7  1  0
  7  8  1  0
  8  9  1  0
  9 10  2  0
  3 11  1  0
 11 12  2  0
 12 13  1  0
 13 14  2  0
 14 15  1  0
 15 16  2  0
  9  3  1  0
 16 11  1  0
M  END
>  <target>  (14) 
-2.64

$$$$

     RDKit          3D

 14 13  0  0  0  0  0  0  0  0999 V2000
   -7.1076    0.3737   -1.1004 C   0  0  0  0  0  0  0  0  0  0  0  0
   -6.3244   -0.5182   -0.1502 C   0  0  0  0  0  0  0  0  0  0  0  0
   -4.8643   -0.0763   -0.0421 C   0  0  0  0  0  0  0  0  0  0  0  0
   -4.0815   -0.9805    0.9127 C   0  0  0  0  0  0  0  0  0  0  0  0
   -2.6415   -0.5159    1.1484 C   0  0  0  0  0  0  0  0  0  0  0  0
   -1.7628   -0.5991   -0.1018 C   0  0  0  0  0  0  0  0  0  0  0  0
   -0.3100   -0.2343    0.2169 C   0  0  0  0  0  0  0  0  0  0  0  0
    0.5688   -0.3172   -1.0332 C   0  0  0  0  0  0  0  0  0  0  0  0
    2.0101    0.1445   -0.7948 C   0  0  0  0  0  0  0  0  0  0  0  0
    2.7817   -0.7563    0.1732 C   0  0  0  0  0  0  0  0  0  0  0  0
    4.2778   -0.4291    0.2409 C   0  0  0  0  0  0  0  0  0  0  0  0
    4.5661    0.9630    0.8094 C   0  0  0  0  0  0  0  0  0  0  0  0
    6.0534    1.2090    1.0759 C   0  0  0  0  0  0  0  0  0  0  0  0
    6.9024    1.2152   -0.1860 C   0  0  0  0  0  0  0  0  0  0  0  0
  1  2  1  0
  2  3  1  0
  3  4  1  0
  4  5  1  0
  5  6  1  0
  6  7  1  0
  7  8  1  0
  8  9  1  0
  9 10  1  0
 10 11  1  0
 11 12  1  0
 12 13  1  0
 13 14  1  0
M  END
>  <target>  (15) 
-7.96

$$$$

     RDKit          3D

  4  3  0  0  0  0  0  0  0  0999 V2000
    1.2646   -0.1380    0.2018 C   0  0  0  0  0  0  0  0  0  0  0  0
   -0.0095    0.2857   -0.5141 C   0  0  0  0  0  0  0  0  0  0  0  0
   -1.2509   -0.2393    0.1923 C   0  0  0  0  0  0  0  0  0  0  0  0
   -0.0810    2.0688   -0.6025 Cl  0  0  0  0  0  0  0  0  0  0  0  0
  1  2  1  0
  2  3  1  0
  2  4  1  0
M  END
>  <target>  (16) 
-1.41

$$$$

     RDKit          3D

  6  5  0  0  0  0  0  0  0  0999 V2000
    2.0180    0.2758   -0.6407 C   0  0  0  0  0  0  0  0  0  0  0  0
    1.0420   -0.4791    0.2503 C   0  0  0  0  0  0  0  0  0  0  0  0
   -0.4125   -0.4387   -0.2572 C   0  0  0  0  0  0  0  0  0  0  0  0
   -1.2875   -1.3144    0.6470 C   0  0  0  0  0  0  0  0  0  0  0  0
   -0.9877    0.9815   -0.3413 C   0  0  0  0  0  0  0  0  0  0  0  0
   -0.9208    1.6293    0.9212 O   0  0  0  0  0  0  0  0  0  0  0  0
  1  2  1  0
  2  3  1  0
  3  4  1  0
  3  5  1  0
  5  6  1  0
M  END
>  <target>  (17) 
-0.47

$$$$

     RDKit          3D

  8  8  0  0  0  0  0  0  0  0999 V2000
    3.6419   -0.2218    0.3083 N   0  0  0  0  0  0  0  0  0  0  0  0
    2.4874   -0.1515    0.2106 C   0  0  0  0  0  0  0  0  0  0  0  0
    1.0616   -0.0646    0.0899 C   0  0  0  0  0  0  0  0  0  0  0  0
    0.2910   -1.2301    0.0146 C   0  0  0  0  0  0  0  0  0  0  0  0
   -1.0977   -1.1440   -0.1030 C   0  0  0  0  0  0  0  0  0  0  0  0
   -1.7180    0.1046   -0.1455 C   0  0  0  0  0  0  0  0  0  0  0  0
   -0.9535    1.2689   -0.0707 C   0  0  0  0  0  0  0  0  0  0  0  0
    0.4353    1.1859    0.0469 C   0  0  0  0  0  0  0  0  0  0  0  0
  1  2  3  0
  2  3  1  0
  3  4  2  0
  4  5  1  0
  5  6  2  0
  6  7  1  0
  7  8  2  0
  8  3  1  0
M  END
>  <target>  (18) 
-1.0

$$$$

     RDKit          3D

 19 19  0  0  0  0  0  0  0  0999 V2000
   -2.2877    2.6987   -2.0438 C   0  0  0  0  0  0  0  0  0  0  0  0
   -2.0844    1.2020   -2.1608 C   0  0  0  0  0  0  0  0  0  0  0  0
   -1.4889    0.7340   -0.9644 O   0  0  0  0  0  0  0  0  0  0  0  0
   -1.4497   -0.8632   -0.6931 P   0  0  0  0  0  0  0  0  0  0  0  0
   -0.6812   -2.0080   -2.0658 S   0  0  0  0  0  0  0  0  0  0  0  0
   -3.0305   -1.1293   -0.4145 O   0  0  0  0  0  0  0  0  0  0  0  0
   -3.4333   -2.4141    0.0299 C   0  0  0  0  0  0  0  0  0  0  0  0
   -4.8326   -2.3088    0.6009 C   0  0  0  0  0  0  0  0  0  0  0  0
   -0.8716   -0.9622    0.8119 O   0  0  0  0  0  0  0  0  0  0  0  0
    0.3959   -0.5478    1.1219 C   0  0  0  0  0  0  0  0  0  0  0  0
    0.7973   -0.6715    2.4292 C   0  0  0  0  0  0  0  0  0  0  0  0
    2.0758   -0.2399    2.7070 C   0  0  0  0  0  0  0  0  0  0  0  0
    2.6194   -0.3278    4.1007 C   0  0  0  0  0  0  0  0  0  0  0  0
    2.8838    0.2730    1.7567 N   0  0  0  0  0  0  0  0  0  0  0  0
    2.3940    0.3520    0.5043 C   0  0  0  0  0  0  0  0  0  0  0  0
    1.1612   -0.0470    0.1476 N   0  0  0  0  0  0  0  0  0  0  0  0
    3.2999    0.9187   -0.5653 C   0  0  0  0  0  0  0  0  0  0  0  0
    3.6678   -0.1569   -1.5862 C   0  0  0  0  0  0  0  0  0  0  0  0
    2.6561    2.1262   -1.2466 C   0  0  0  0  0  0  0  0  0  0  0  0
  1  2  1  0
  2  3  1  0
  3  4  1  0
  4  5  2  0
  4  6  1  0
  6  7  1  0
  7  8  1  0
  4  9  1  0
  9 10  1  0
 10 11  2  0
 11 12  1  0
 12 13  1  0
 12 14  2  0
 14 15  1  0
 15 16  2  0
 15 17  1  0
 17 18  1  0
 17 19  1  0
 16 10  1  0
M  END
>  <target>  (19) 
-3.64

$$$$

     RDKit          3D

 12 11  0  0  0  0  0  0  0  0999 V2000
    5.1538    0.9678   -0.4333 C   0  0  0  0  0  0  0  0  0  0  0  0
    4.7999   -0.4801   -0.7336 C   0  0  0  0  0  0  0  0  0  0  0  0
    3.5616   -0.6374   -1.6194 C   0  0  0  0  0  0  0  0  0  0  0  0
    2.2644   -0.0324   -1.0710 C   0  0  0  0  0  0  0  0  0  0  0  0
    1.8193   -0.6505    0.2567 C   0  0  0  0  0  0  0  0  0  0  0  0
    0.5191   -0.0495    0.8011 C   0  0  0  0  0  0  0  0  0  0  0  0
   -0.7083   -0.3726   -0.0539 C   0  0  0  0  0  0  0  0  0  0  0  0
   -1.9911    0.1475    0.6003 C   0  0  0  0  0  0  0  0  0  0  0  0
   -3.2212   -0.1730   -0.2561 C   0  0  0  0  0  0  0  0  0  0  0  0
   -4.5203    0.3068    0.3977 C   0  0  0  0  0  0  0  0  0  0  0  0
   -5.7338   -0.0874   -0.4335 C   0  0  0  0  0  0  0  0  0  0  0  0
   -4.4869    1.7261    0.5181 O   0  0  0  0  0  0  0  0  0  0  0  0
  1  2  1  0
  2  3  1  0
  3  4  1  0
  4  5  1  0
  5  6  1  0
  6  7  1  0
  7  8  1  0
  8  9  1  0
  9 10  1  0
 10 11  1  0
 10 12  1  0
M  END
>  <target>  (20) 
-2.94

$$$$

     RDKit          3D

 17 18  0  0  0  0  0  0  0  0999 V2000
   -5.2136    0.6192    0.0420 Cl  0  0  0  0  0  0  0  0  0  0  0  0
   -3.5061    0.4097    0.0279 C   0  0  0  0  0  0  0  0  0  0  0  0
   -2.7092    1.1856    0.8654 C   0  0  0  0  0  0  0  0  0  0  0  0
   -1.3223    1.0174    0.8564 C   0  0  0  0  0  0  0  0  0  0  0  0
   -0.7156    0.0712    0.0094 C   0  0  0  0  0  0  0  0  0  0  0  0
   -1.5455   -0.7015   -0.8281 C   0  0  0  0  0  0  0  0  0  0  0  0
   -0.8879   -1.8896   -1.9019 Cl  0  0  0  0  0  0  0  0  0  0  0  0
   -2.9328   -0.5336   -0.8194 C   0  0  0  0  0  0  0  0  0  0  0  0
    0.7548   -0.0805    0.0266 C   0  0  0  0  0  0  0  0  0  0  0  0
    1.3759   -0.9989    0.9007 C   0  0  0  0  0  0  0  0  0  0  0  0
    0.4588   -1.9735    2.0012 Cl  0  0  0  0  0  0  0  0  0  0  0  0
    2.7643   -1.1595    0.9169 C   0  0  0  0  0  0  0  0  0  0  0  0
    3.5643   -0.4064    0.0618 C   0  0  0  0  0  0  0  0  0  0  0  0
    2.9800    0.5118   -0.8121 C   0  0  0  0  0  0  0  0  0  0  0  0
    4.0453    1.4109   -1.8365 Cl  0  0  0  0  0  0  0  0  0  0  0  0
    1.5841    0.6793   -0.8345 C   0  0  0  0  0  0  0  0  0  0  0  0
    0.8671    1.8326   -1.9256 Cl  0  0  0  0  0  0  0  0  0  0  0  0
  1  2  1  0
  2  3  2  0
  3  4  1  0
  4  5  2  0
  5  6  1  0
  6  7  1  0
  6  8  2  0
  5  9  1  0
  9 10  2  0
 10 11  1  0
 10 12  1  0
 12 13  2  0
 13 14  1  0
 14 15  1  0
 14 16  2  0
 16 17  1  0
  8  2  1  0
 16  9  1  0
M  END
>  <target>  (21) 
-7.43

$$$$

     RDKit          3D

 17 19  0  0  0  0  0  0  0  0999 V2000
   -0.1331   -2.2050    0.8105 O   0  0  0  0  0  0  0  0  0  0  0  0
    0.5630   -1.2437    0.4896 C   0  0  0  0  0  0  0  0  0  0  0  0
    1.9241   -1.3314    0.6632 N   0  0  0  0  0  0  0  0  0  0  0  0
    2.7759   -0.3329    0.3419 C   0  0  0  0  0  0  0  0  0  0  0  0
    4.2502   -0.3732    0.5075 C   0  0  0  0  0  0  0  0  0  0  0  0
    4.6268    1.1011    0.2868 C   0  0  0  0  0  0  0  0  0  0  0  0
    3.4492    1.7611   -0.4498 C   0  0  0  0  0  0  0  0  0  0  0  0
    2.3464    0.8115   -0.1713 C   0  0  0  0  0  0  0  0  0  0  0  0
    0.9160    1.0229   -0.4045 C   0  0  0  0  0  0  0  0  0  0  0  0
    0.5412    2.0894   -0.8850 O   0  0  0  0  0  0  0  0  0  0  0  0
    0.0851   -0.0441   -0.0477 N   0  0  0  0  0  0  0  0  0  0  0  0
   -1.3623    0.1257   -0.2642 C   0  0  0  0  0  0  0  0  0  0  0  0
   -1.9270   -0.8598   -1.3027 C   0  0  0  0  0  0  0  0  0  0  0  0
   -3.4178   -0.6234   -1.5405 C   0  0  0  0  0  0  0  0  0  0  0  0
   -4.2098   -0.6630   -0.2364 C   0  0  0  0  0  0  0  0  0  0  0  0
   -3.6566    0.3212    0.7907 C   0  0  0  0  0  0  0  0  0  0  0  0
   -2.1678    0.0918    1.0468 C   0  0  0  0  0  0  0  0  0  0  0  0
  1  2  2  0
  2  3  1  0
  3  4  1  0
  4  5  1  0
  5  6  1  0
  6  7  1  0
  7  8  1  0
  8  9  1  0
  9 10  2  0
  9 11  1  0
 11 12  1  0
 12 13  1  0
 13 14  1  0
 14 15  1  0
 15 16  1  0
 16 17  1  0
  8  4  2  0
 11  2  1  0
 17 12  1  0
M  END
>  <target>  (22) 
-4.593999999999999

$$$$

     RDKit          3D

 13 12  0  0  0  0  0  0  0  0999 V2000
   -1.2785   -2.2452   -2.7014 C   0  0  0  0  0  0  0  0  0  0  0  0
   -1.3578   -0.7599   -2.4125 C   0  0  0  0  0  0  0  0  0  0  0  0
   -0.6689   -0.5013   -1.1993 O   0  0  0  0  0  0  0  0  0  0  0  0
   -0.3453    1.0378   -0.7794 P   0  0  0  0  0  0  0  0  0  0  0  0
    0.9968    1.8454   -1.9432 S   0  0  0  0  0  0  0  0  0  0  0  0
   -1.8274    1.6822   -0.9575 O   0  0  0  0  0  0  0  0  0  0  0  0
   -2.0152    3.0603   -0.6783 C   0  0  0  0  0  0  0  0  0  0  0  0
   -3.4915    3.3059   -0.4431 C   0  0  0  0  0  0  0  0  0  0  0  0
    0.0410    0.9488    1.2828 S   0  0  0  0  0  0  0  0  0  0  0  0
    1.4644   -0.1568    1.3407 C   0  0  0  0  0  0  0  0  0  0  0  0
    1.9598   -0.4509    3.0614 S   0  0  0  0  0  0  0  0  0  0  0  0
    3.5248   -1.3372    2.7801 C   0  0  0  0  0  0  0  0  0  0  0  0
    3.3076   -2.7299    2.2167 C   0  0  0  0  0  0  0  0  0  0  0  0
  1  2  1  0
  2  3  1  0
  3  4  1  0
  4  5  2  0
  4  6  1  0
  6  7  1  0
  7  8  1  0
  4  9  1  0
  9 10  1  0
 10 11  1  0
 11 12  1  0
 12 13  1  0
M  END
>  <target>  (23) 
-4.11

$$$$

     RDKit          3D

 13 13  0  0  0  0  0  0  0  0999 V2000
    5.0379   -0.2739    0.0557 C   0  0  0  0  0  0  0  0  0  0  0  0
    3.6103   -0.0694    0.5300 C   0  0  0  0  0  0  0  0  0  0  0  0
    2.7399   -0.3293   -0.5702 O   0  0  0  0  0  0  0  0  0  0  0  0
    1.3983   -0.1990   -0.3441 C   0  0  0  0  0  0  0  0  0  0  0  0
    0.5905   -0.4652   -1.4494 C   0  0  0  0  0  0  0  0  0  0  0  0
   -0.8014   -0.3690   -1.3554 C   0  0  0  0  0  0  0  0  0  0  0  0
   -1.4092   -0.0041   -0.1495 C   0  0  0  0  0  0  0  0  0  0  0  0
   -2.8170    0.0720   -0.1338 N   0  0  0  0  0  0  0  0  0  0  0  0
   -3.6312    0.3996    0.9353 C   0  0  0  0  0  0  0  0  0  0  0  0
   -3.2792    0.6661    2.0787 O   0  0  0  0  0  0  0  0  0  0  0  0
   -5.0940    0.3714    0.5668 C   0  0  0  0  0  0  0  0  0  0  0  0
   -0.5987    0.2623    0.9542 C   0  0  0  0  0  0  0  0  0  0  0  0
    0.7975    0.1655    0.8587 C   0  0  0  0  0  0  0  0  0  0  0  0
  1  2  1  0
  2  3  1  0
  3  4  1  0
  4  5  2  0
  5  6  1  0
  6  7  2  0
  7  8  1  0
  8  9  1  0
  9 10  2  0
  9 11  1  0
  7 12  1  0
 12 13  2  0
 13  4  1  0
M  END
>  <target>  (24) 
-2.35

$$$$

     RDKit          3D

 22 22  0  0  0  0  0  0  0  0999 V2000
   -3.4081    0.0076    1.4617 C   0  0  0  0  0  0  0  0  0  0  0  0
   -2.0370   -0.6008    1.2111 C   0  0  0  0  0  0  0  0  0  0  0  0
   -1.4234   -0.0359   -0.0085 N   0  0  0  0  0  0  0  0  0  0  0  0
   -1.9684   -0.4988   -1.3037 C   0  0  0  0  0  0  0  0  0  0  0  0
   -2.8197    0.5915   -1.9384 C   0  0  0  0  0  0  0  0  0  0  0  0
   -0.0212    0.0844    0.0340 C   0  0  0  0  0  0  0  0  0  0  0  0
    0.5653    1.3586   -0.0196 C   0  0  0  0  0  0  0  0  0  0  0  0
    1.9522    1.5682   -0.0150 C   0  0  0  0  0  0  0  0  0  0  0  0
    2.8381    0.4814    0.0955 C   0  0  0  0  0  0  0  0  0  0  0  0
    2.3176   -0.8221    0.2283 C   0  0  0  0  0  0  0  0  0  0  0  0
    3.1922   -1.9273    0.2308 N   0  0  0  0  0  0  0  0  0  0  0  0
    0.9012   -0.9861    0.1332 C   0  0  0  0  0  0  0  0  0  0  0  0
    0.3966   -2.3444    0.1715 N   0  0  0  0  0  0  0  0  0  0  0  0
    0.4771   -2.9365    1.2584 O   0  0  0  0  0  0  0  0  0  0  0  0
   -0.0439   -2.8280   -0.8796 O   0  0  0  0  0  0  0  0  0  0  0  0
    4.3229    0.7663    0.0420 C   0  0  0  0  0  0  0  0  0  0  0  0
    4.6406    1.9883    0.5552 F   0  0  0  0  0  0  0  0  0  0  0  0
    5.0741   -0.1291    0.7450 F   0  0  0  0  0  0  0  0  0  0  0  0
    4.8088    0.7572   -1.2277 F   0  0  0  0  0  0  0  0  0  0  0  0
   -0.2700    2.5439   -0.0681 N   0  0  0  0  0  0  0  0  0  0  0  0
   -0.2813    3.1721   -1.1358 O   0  0  0  0  0  0  0  0  0  0  0  0
   -0.8346    2.8814    0.9813 O   0  0  0  0  0  0  0  0  0  0  0  0
  1  2  1  0
  2  3  1  0
  3  4  1  0
  4  5  1  0
  3  6  1  0
  6  7  2  0
  7  8  1  0
  8  9  2  0
  9 10  1  0
 10 11  1  0
 10 12  2  0
 12 13  1  0
 13 14  1  0
 13 15  2  0
  9 16  1  0
 16 17  1  0
 16 18  1  0
 16 19  1  0
  7 20  1  0
 20 21  1  0
 20 22  2  0
 12  6  1  0
M  CHG  4  13   1  14  -1  20   1  21  -1
M  END
>  <target>  (25) 
-5.47

$$$$

     RDKit          3D

  8  7  0  0  0  0  0  0  0  0999 V2000
    3.8306    0.6753   -0.1690 C   0  0  0  0  0  0  0  0  0  0  0  0
    2.3695    0.8933   -0.5285 C   0  0  0  0  0  0  0  0  0  0  0  0
    1.4850   -0.2267    0.0189 C   0  0  0  0  0  0  0  0  0  0  0  0
    0.0153   -0.0038   -0.3454 C   0  0  0  0  0  0  0  0  0  0  0  0
   -0.8682   -1.1246    0.2067 C   0  0  0  0  0  0  0  0  0  0  0  0
   -2.3318   -1.0075   -0.2194 C   0  0  0  0  0  0  0  0  0  0  0  0
   -3.0377    0.2181    0.3447 C   0  0  0  0  0  0  0  0  0  0  0  0
   -4.4081    0.1687   -0.0320 O   0  0  0  0  0  0  0  0  0  0  0  0
  1  2  1  0
  2  3  1  0
  3  4  1  0
  4  5  1  0
  5  6  1  0
  6  7  1  0
  7  8  1  0
M  END
>  <target>  (26) 
-1.81

$$$$

     RDKit          3D

 13 14  0  0  0  0  0  0  0  0999 V2000
    2.9750   -0.1214   -0.2657 C   0  0  0  0  0  0  0  0  0  0  0  0
    1.5371    0.0099   -0.1374 N   0  0  0  0  0  0  0  0  0  0  0  0
    0.8026   -1.1946   -0.0693 C   0  0  0  0  0  0  0  0  0  0  0  0
    1.3730   -2.2885   -0.1181 O   0  0  0  0  0  0  0  0  0  0  0  0
   -0.5850   -1.0900    0.0545 N   0  0  0  0  0  0  0  0  0  0  0  0
   -1.4129   -2.2796    0.1310 C   0  0  0  0  0  0  0  0  0  0  0  0
   -1.1623    0.1553    0.1036 C   0  0  0  0  0  0  0  0  0  0  0  0
   -2.4903    0.4337    0.2217 N   0  0  0  0  0  0  0  0  0  0  0  0
   -2.5512    1.7510    0.2245 C   0  0  0  0  0  0  0  0  0  0  0  0
   -1.3076    2.3177    0.1122 N   0  0  0  0  0  0  0  0  0  0  0  0
   -0.4160    1.2887    0.0346 C   0  0  0  0  0  0  0  0  0  0  0  0
    0.9952    1.2967   -0.0916 C   0  0  0  0  0  0  0  0  0  0  0  0
    1.6408    2.3379   -0.1515 O   0  0  0  0  0  0  0  0  0  0  0  0
  1  2  1  0
  2  3  1  0
  3  4  2  0
  3  5  1  0
  5  6  1  0
  5  7  1  0
  7  8  1  0
  8  9  2  0
  9 10  1  0
 10 11  1  0
 11 12  1  0
 12 13  2  0
 12  2  1  0
 11  7  2  0
M  END
>  <target>  (27) 
-1.39

$$$$

     RDKit          3D

 15 15  0  0  0  0  0  0  0  0999 V2000
    4.1829    0.3151    0.2194 C   0  0  0  0  0  0  0  0  0  0  0  0
    3.0136   -0.5199   -0.2782 C   0  0  0  0  0  0  0  0  0  0  0  0
    1.6907    0.2407   -0.1594 C   0  0  0  0  0  0  0  0  0  0  0  0
    0.5189   -0.6079   -0.6715 C   0  0  0  0  0  0  0  0  0  0  0  0
   -0.8957    0.0328   -0.5140 C   0  0  0  0  0  0  0  0  0  0  0  0
   -0.9576    1.4217   -1.1956 C   0  0  0  0  0  0  0  0  0  0  0  0
   -2.3372    2.0799   -1.1811 C   0  0  0  0  0  0  0  0  0  0  0  0
   -1.8545   -0.9421   -1.1888 C   0  0  0  0  0  0  0  0  0  0  0  0
   -2.1971   -0.8631   -2.3661 O   0  0  0  0  0  0  0  0  0  0  0  0
   -2.2769   -1.9937   -0.4223 N   0  0  0  0  0  0  0  0  0  0  0  0
   -2.3441   -1.9754    0.9356 C   0  0  0  0  0  0  0  0  0  0  0  0
   -3.0879   -2.7330    1.5498 O   0  0  0  0  0  0  0  0  0  0  0  0
   -1.6177   -1.0217    1.5761 N   0  0  0  0  0  0  0  0  0  0  0  0
   -1.2055    0.1344    0.9741 C   0  0  0  0  0  0  0  0  0  0  0  0
   -1.0622    1.1575    1.6384 O   0  0  0  0  0  0  0  0  0  0  0  0
  1  2  1  0
  2  3  1  0
  3  4  1  0
  4  5  1  0
  5  6  1  0
  6  7  1  0
  5  8  1  0
  8  9  2  0
  8 10  1  0
 10 11  1  0
 11 12  2  0
 11 13  1  0
 13 14  1  0
 14 15  2  0
 14  5  1  0
M  END
>  <target>  (28) 
-1.661

$$$$

     RDKit          3D

 18 19  0  0  0  0  0  0  0  0999 V2000
   -1.7625   -3.2795    0.2903 Cl  0  0  0  0  0  0  0  0  0  0  0  0
   -0.2262   -2.4593    0.3135 C   0  0  0  0  0  0  0  0  0  0  0  0
    1.1378   -3.5100    0.5751 Cl  0  0  0  0  0  0  0  0  0  0  0  0
   -0.1032   -1.1215    0.1430 C   0  0  0  0  0  0  0  0  0  0  0  0
    1.2409   -0.4910    0.1432 C   0  0  0  0  0  0  0  0  0  0  0  0
    2.0597   -0.5551   -0.9937 C   0  0  0  0  0  0  0  0  0  0  0  0
    3.3176    0.0526   -0.9907 C   0  0  0  0  0  0  0  0  0  0  0  0
    3.7573    0.7286    0.1458 C   0  0  0  0  0  0  0  0  0  0  0  0
    5.3049    1.4794    0.1478 Cl  0  0  0  0  0  0  0  0  0  0  0  0
    2.9508    0.8029    1.2799 C   0  0  0  0  0  0  0  0  0  0  0  0
    1.6927    0.1953    1.2788 C   0  0  0  0  0  0  0  0  0  0  0  0
   -1.3118   -0.2802   -0.0449 C   0  0  0  0  0  0  0  0  0  0  0  0
   -1.6590    0.1716   -1.3255 C   0  0  0  0  0  0  0  0  0  0  0  0
   -2.7872    0.9756   -1.5067 C   0  0  0  0  0  0  0  0  0  0  0  0
   -3.5677    1.3319   -0.4085 C   0  0  0  0  0  0  0  0  0  0  0  0
   -4.9550    2.3239   -0.6326 Cl  0  0  0  0  0  0  0  0  0  0  0  0
   -3.2307    0.8922    0.8702 C   0  0  0  0  0  0  0  0  0  0  0  0
   -2.1026    0.0887    1.0531 C   0  0  0  0  0  0  0  0  0  0  0  0
  1  2  1  0
  2  3  1  0
  2  4  2  3
  4  5  1  0
  5  6  2  0
  6  7  1  0
  7  8  2  0
  8  9  1  0
  8 10  1  0
 10 11  2  0
  4 12  1  0
 12 13  2  0
 13 14  1  0
 14 15  2  0
 15 16  1  0
 15 17  1  0
 17 18  2  0
 11  5  1  0
 18 12  1  0
M  END
>  <target>  (29) 
-6.9

$$$$

     RDKit          3D

 11 10  0  0  0  0  0  0  0  0999 V2000
    5.1253   -0.2800    0.2472 C   0  0  0  0  0  0  0  0  0  0  0  0
    3.7249   -0.3012    0.8387 C   0  0  0  0  0  0  0  0  0  0  0  0
    2.6660    0.0141   -0.2175 C   0  0  0  0  0  0  0  0  0  0  0  0
    1.2588   -0.0082    0.3815 C   0  0  0  0  0  0  0  0  0  0  0  0
    0.1991    0.3073   -0.6754 C   0  0  0  0  0  0  0  0  0  0  0  0
   -1.2074    0.2851   -0.0768 C   0  0  0  0  0  0  0  0  0  0  0  0
   -2.2633    0.5989   -1.1298 C   0  0  0  0  0  0  0  0  0  0  0  0
   -3.6397    0.6032   -0.5180 C   0  0  0  0  0  0  0  0  0  0  0  0
   -4.2249    1.6124   -0.1497 O   0  0  0  0  0  0  0  0  0  0  0  0
   -4.1188   -0.6674   -0.4180 O   0  0  0  0  0  0  0  0  0  0  0  0
   -5.4176   -0.7519    0.1695 C   0  0  0  0  0  0  0  0  0  0  0  0
  1  2  1  0
  2  3  1  0
  3  4  1  0
  4  5  1  0
  5  6  1  0
  6  7  1  0
  7  8  1  0
  8  9  2  0
  8 10  1  0
 10 11  1  0
M  END
>  <target>  (30) 
-3.17

$$$$

     RDKit          3D

 10 10  0  0  0  0  0  0  0  0999 V2000
   -3.4365    1.0486   -0.0266 C   0  0  0  0  0  0  0  0  0  0  0  0
   -2.9272   -0.3809   -0.1306 C   0  0  0  0  0  0  0  0  0  0  0  0
   -1.4220   -0.4436   -0.0965 C   0  0  0  0  0  0  0  0  0  0  0  0
   -0.6799   -0.3594   -1.2806 C   0  0  0  0  0  0  0  0  0  0  0  0
    0.7160   -0.4009   -1.2476 C   0  0  0  0  0  0  0  0  0  0  0  0
    1.3950   -0.5273   -0.0299 C   0  0  0  0  0  0  0  0  0  0  0  0
    2.9013   -0.5540    0.0072 C   0  0  0  0  0  0  0  0  0  0  0  0
    3.4889    0.8428    0.1372 C   0  0  0  0  0  0  0  0  0  0  0  0
    0.6533   -0.5981    1.1554 C   0  0  0  0  0  0  0  0  0  0  0  0
   -0.7426   -0.5566    1.1224 C   0  0  0  0  0  0  0  0  0  0  0  0
  1  2  1  0
  2  3  1  0
  3  4  2  0
  4  5  1  0
  5  6  2  0
  6  7  1  0
  7  8  1  0
  6  9  1  0
  9 10  2  0
 10  3  1  0
M  END
>  <target>  (31) 
-3.75

$$$$

     RDKit          3D

 15 14  0  0  0  0  0  0  0  0999 V2000
   -4.7620   -2.9062    0.0469 C   0  0  0  0  0  0  0  0  0  0  0  0
   -3.7174   -2.2332    0.9136 C   0  0  0  0  0  0  0  0  0  0  0  0
   -3.3308   -1.0186    0.2908 O   0  0  0  0  0  0  0  0  0  0  0  0
   -1.9198   -0.3311    0.7151 P   0  0  0  0  0  0  0  0  0  0  0  0
   -1.8355    0.1675    2.5998 S   0  0  0  0  0  0  0  0  0  0  0  0
   -1.9524    0.9727   -0.2590 O   0  0  0  0  0  0  0  0  0  0  0  0
   -3.1066    1.7977   -0.2768 C   0  0  0  0  0  0  0  0  0  0  0  0
   -2.7741    3.0702   -1.0291 C   0  0  0  0  0  0  0  0  0  0  0  0
   -0.3897   -1.5352   -0.0718 S   0  0  0  0  0  0  0  0  0  0  0  0
    1.0424   -0.4451    0.0747 C   0  0  0  0  0  0  0  0  0  0  0  0
    2.5112   -1.2596   -0.6160 S   0  0  0  0  0  0  0  0  0  0  0  0
    3.8438   -0.0356   -0.2330 C   0  0  0  0  0  0  0  0  0  0  0  0
    3.5229    1.3390   -0.8308 C   0  0  0  0  0  0  0  0  0  0  0  0
    4.0550    0.0729    1.2818 C   0  0  0  0  0  0  0  0  0  0  0  0
    5.1273   -0.5789   -0.8819 C   0  0  0  0  0  0  0  0  0  0  0  0
  1  2  1  0
  2  3  1  0
  3  4  1  0
  4  5  2  0
  4  6  1  0
  6  7  1  0
  7  8  1  0
  4  9  1  0
  9 10  1  0
 10 11  1  0
 11 12  1  0
 12 13  1  0
 12 14  1  0
 12 15  1  0
M  END
>  <target>  (32) 
-4.755

$$$$

     RDKit          3D

 22 23  0  0  0  0  0  0  0  0999 V2000
    6.7582    2.3525    1.0332 C   0  0  0  0  0  0  0  0  0  0  0  0
    5.3911    1.9393    1.0651 O   0  0  0  0  0  0  0  0  0  0  0  0
    5.1869    0.6611    0.6432 C   0  0  0  0  0  0  0  0  0  0  0  0
    6.0805   -0.0847    0.2735 O   0  0  0  0  0  0  0  0  0  0  0  0
    3.8488    0.4025    0.7215 N   0  0  0  0  0  0  0  0  0  0  0  0
    3.1613   -0.7738    0.3789 C   0  0  0  0  0  0  0  0  0  0  0  0
    3.7819   -1.9136   -0.1409 C   0  0  0  0  0  0  0  0  0  0  0  0
    3.0291   -3.0488   -0.4639 C   0  0  0  0  0  0  0  0  0  0  0  0
    1.6497   -3.0527   -0.2742 C   0  0  0  0  0  0  0  0  0  0  0  0
    1.0309   -1.9120    0.2289 C   0  0  0  0  0  0  0  0  0  0  0  0
   -0.3556   -1.9903    0.4521 O   0  0  0  0  0  0  0  0  0  0  0  0
   -1.1696   -0.9505    0.0022 C   0  0  0  0  0  0  0  0  0  0  0  0
   -0.7697    0.0262   -0.6146 O   0  0  0  0  0  0  0  0  0  0  0  0
   -2.4576   -1.2322    0.3767 N   0  0  0  0  0  0  0  0  0  0  0  0
   -3.6194   -0.4729    0.1535 C   0  0  0  0  0  0  0  0  0  0  0  0
   -4.8251   -0.9928    0.6389 C   0  0  0  0  0  0  0  0  0  0  0  0
   -6.0217   -0.2953    0.4646 C   0  0  0  0  0  0  0  0  0  0  0  0
   -6.0252    0.9283   -0.2013 C   0  0  0  0  0  0  0  0  0  0  0  0
   -4.8333    1.4572   -0.7061 C   0  0  0  0  0  0  0  0  0  0  0  0
   -4.8241    2.7903   -1.3954 C   0  0  0  0  0  0  0  0  0  0  0  0
   -3.6316    0.7554   -0.5126 C   0  0  0  0  0  0  0  0  0  0  0  0
    1.7754   -0.7829    0.5750 C   0  0  0  0  0  0  0  0  0  0  0  0
  1  2  1  0
  2  3  1  0
  3  4  2  0
  3  5  1  0
  5  6  1  0
  6  7  2  0
  7  8  1  0
  8  9  2  0
  9 10  1  0
 10 11  1  0
 11 12  1  0
 12 13  2  0
 12 14  1  0
 14 15  1  0
 15 16  2  0
 16 17  1  0
 17 18  2  0
 18 19  1  0
 19 20  1  0
 19 21  2  0
 10 22  2  0
 22  6  1  0
 21 15  1  0
M  END
>  <target>  (33) 
-4.805

$$$$

     RDKit          3D

  4  3  0  0  0  0  0  0  0  0999 V2000
   -1.2936   -1.3088   -0.9421 Cl  0  0  0  0  0  0  0  0  0  0  0  0
   -0.5582   -0.0265   -0.0573 C   0  0  0  0  0  0  0  0  0  0  0  0
    0.7687    0.0365    0.0789 C   0  0  0  0  0  0  0  0  0  0  0  0
   -1.5745    1.1727    0.6478 Cl  0  0  0  0  0  0  0  0  0  0  0  0
  1  2  1  0
  2  3  2  0
  2  4  1  0
M  END
>  <target>  (34) 
-1.64

$$$$

     RDKit          3D

 14 16  0  0  0  0  0  0  0  0999 V2000
   -3.2590   -1.0015   -0.5852 C   0  0  0  0  0  0  0  0  0  0  0  0
   -2.3126    0.0560   -0.1104 C   0  0  0  0  0  0  0  0  0  0  0  0
   -2.7783    1.2938    0.3550 C   0  0  0  0  0  0  0  0  0  0  0  0
   -1.8878    2.2867    0.8009 C   0  0  0  0  0  0  0  0  0  0  0  0
   -0.5079    2.0689    0.7934 C   0  0  0  0  0  0  0  0  0  0  0  0
   -0.0371    0.8503    0.3359 C   0  0  0  0  0  0  0  0  0  0  0  0
   -0.9358   -0.1460   -0.1117 C   0  0  0  0  0  0  0  0  0  0  0  0
   -0.1634   -1.3755   -0.5563 C   0  0  0  0  0  0  0  0  0  0  0  0
    1.2713   -0.9593   -0.3085 C   0  0  0  0  0  0  0  0  0  0  0  0
    2.4258   -1.6909   -0.5331 C   0  0  0  0  0  0  0  0  0  0  0  0
    3.6497   -1.0937   -0.2254 C   0  0  0  0  0  0  0  0  0  0  0  0
    3.7024    0.2103    0.2960 C   0  0  0  0  0  0  0  0  0  0  0  0
    2.5311    0.9416    0.5196 C   0  0  0  0  0  0  0  0  0  0  0  0
    1.3166    0.3502    0.2148 C   0  0  0  0  0  0  0  0  0  0  0  0
  1  2  1  0
  2  3  2  0
  3  4  1  0
  4  5  2  0
  5  6  1  0
  6  7  2  0
  7  8  1  0
  8  9  1  0
  9 10  2  0
 10 11  1  0
 11 12  2  0
 12 13  1  0
 13 14  2  0
  7  2  1  0
 14  6  1  0
 14  9  1  0
M  END
>  <target>  (35) 
-5.22

$$$$

     RDKit          3D

  6  5  0  0  0  0  0  0  0  0999 V2000
    2.3013    0.5739   -0.4509 C   0  0  0  0  0  0  0  0  0  0  0  0
    1.1339   -0.3999   -0.4282 C   0  0  0  0  0  0  0  0  0  0  0  0
   -0.1795    0.3079   -0.0987 C   0  0  0  0  0  0  0  0  0  0  0  0
   -1.3479   -0.6723   -0.0769 C   0  0  0  0  0  0  0  0  0  0  0  0
   -2.6618   -0.0025    0.2462 C   0  0  0  0  0  0  0  0  0  0  0  0
   -2.7997    1.1953    0.4701 O   0  0  0  0  0  0  0  0  0  0  0  0
  1  2  1  0
  2  3  1  0
  3  4  1  0
  4  5  1  0
  5  6  2  0
M  END
>  <target>  (36) 
-0.85

$$$$

     RDKit          3D

 13 14  0  0  0  0  0  0  0  0999 V2000
    0.1604   -0.8527    0.5619 N   0  0  0  0  0  0  0  0  0  0  0  0
    1.3445   -0.2429    0.1127 C   0  0  0  0  0  0  0  0  0  0  0  0
    1.4145    1.1035   -0.2621 C   0  0  0  0  0  0  0  0  0  0  0  0
    2.6060    1.6590   -0.7389 C   0  0  0  0  0  0  0  0  0  0  0  0
    3.7464    0.8694   -0.8564 C   0  0  0  0  0  0  0  0  0  0  0  0
    3.6953   -0.4740   -0.4958 C   0  0  0  0  0  0  0  0  0  0  0  0
    2.5024   -1.0240   -0.0177 C   0  0  0  0  0  0  0  0  0  0  0  0
   -1.1955   -0.5493    0.3489 C   0  0  0  0  0  0  0  0  0  0  0  0
   -2.1355   -0.9265    1.3195 C   0  0  0  0  0  0  0  0  0  0  0  0
   -3.4904   -0.6153    1.1728 C   0  0  0  0  0  0  0  0  0  0  0  0
   -3.9259    0.0847    0.0514 C   0  0  0  0  0  0  0  0  0  0  0  0
   -3.0068    0.4720   -0.9198 C   0  0  0  0  0  0  0  0  0  0  0  0
   -1.6522    0.1601   -0.7674 C   0  0  0  0  0  0  0  0  0  0  0  0
  1  2  1  0
  2  3  2  0
  3  4  1  0
  4  5  2  0
  5  6  1  0
  6  7  2  0
  1  8  1  0
  8  9  2  0
  9 10  1  0
 10 11  2  0
 11 12  1  0
 12 13  2  0
  7  2  1  0
 13  8  1  0
M  END
>  <target>  (37) 
-3.5039999999999996

$$$$

     RDKit          3D

 17 17  0  0  0  0  0  0  0  0999 V2000
    6.8963    0.9144    0.3510 C   0  0  0  0  0  0  0  0  0  0  0  0
    5.6714    0.5556    1.0448 N   0  0  0  0  0  0  0  0  0  0  0  0
    5.8383   -0.2241    2.2648 C   0  0  0  0  0  0  0  0  0  0  0  0
    4.4728    0.6951    0.3469 C   0  0  0  0  0  0  0  0  0  0  0  0
    4.3900    1.2351   -0.7508 O   0  0  0  0  0  0  0  0  0  0  0  0
    3.0361    0.0329    1.1201 S   0  0  0  0  0  0  0  0  0  0  0  0
    1.7841    0.5001   -0.1112 C   0  0  0  0  0  0  0  0  0  0  0  0
    0.4060    0.0318    0.3531 C   0  0  0  0  0  0  0  0  0  0  0  0
   -0.6736    0.4089   -0.6613 C   0  0  0  0  0  0  0  0  0  0  0  0
   -2.0564   -0.0536   -0.2075 C   0  0  0  0  0  0  0  0  0  0  0  0
   -2.9987    0.3358   -1.2063 O   0  0  0  0  0  0  0  0  0  0  0  0
   -4.3089    0.0102   -0.9846 C   0  0  0  0  0  0  0  0  0  0  0  0
   -4.8106   -0.6678    0.1275 C   0  0  0  0  0  0  0  0  0  0  0  0
   -6.1794   -0.9372    0.2277 C   0  0  0  0  0  0  0  0  0  0  0  0
   -7.0514   -0.5309   -0.7811 C   0  0  0  0  0  0  0  0  0  0  0  0
   -6.5564    0.1459   -1.8929 C   0  0  0  0  0  0  0  0  0  0  0  0
   -5.1898    0.4142   -1.9917 C   0  0  0  0  0  0  0  0  0  0  0  0
  1  2  1  0
  2  3  1  0
  2  4  1  0
  4  5  2  0
  4  6  1  0
  6  7  1  0
  7  8  1  0
  8  9  1  0
  9 10  1  0
 10 11  1  0
 11 12  1  0
 12 13  2  0
 13 14  1  0
 14 15  2  0
 15 16  1  0
 16 17  2  0
 17 12  1  0
M  END
>  <target>  (38) 
-3.927

$$$$

     RDKit          3D

 21 21  0  0  0  0  0  0  0  0999 V2000
    1.9074   -3.6871    1.1948 C   0  0  0  0  0  0  0  0  0  0  0  0
    3.0584   -3.7477    0.2003 C   0  0  0  0  0  0  0  0  0  0  0  0
    2.7942   -2.9083   -1.0441 C   0  0  0  0  0  0  0  0  0  0  0  0
    2.6718   -1.5465   -0.6729 O   0  0  0  0  0  0  0  0  0  0  0  0
    2.6501   -0.4078   -1.8277 P   0  0  0  0  0  0  0  0  0  0  0  0
    4.4249   -0.0850   -2.5782 S   0  0  0  0  0  0  0  0  0  0  0  0
    2.1403    0.8722   -0.9582 O   0  0  0  0  0  0  0  0  0  0  0  0
    2.6956    1.0947    0.3288 C   0  0  0  0  0  0  0  0  0  0  0  0
    2.4161    2.5293    0.7599 C   0  0  0  0  0  0  0  0  0  0  0  0
    0.9270    2.8241    0.8646 C   0  0  0  0  0  0  0  0  0  0  0  0
    1.0892   -0.8166   -3.1879 S   0  0  0  0  0  0  0  0  0  0  0  0
   -0.3221    0.0916   -2.5046 C   0  0  0  0  0  0  0  0  0  0  0  0
   -0.7050   -0.3674   -1.1007 C   0  0  0  0  0  0  0  0  0  0  0  0
   -0.1834   -1.3510   -0.5727 O   0  0  0  0  0  0  0  0  0  0  0  0
   -1.6814    0.3873   -0.4342 N   0  0  0  0  0  0  0  0  0  0  0  0
   -2.5780    1.3194   -1.1271 C   0  0  0  0  0  0  0  0  0  0  0  0
   -3.0484    2.4587   -0.2297 C   0  0  0  0  0  0  0  0  0  0  0  0
   -3.6294    1.9411    1.0789 C   0  0  0  0  0  0  0  0  0  0  0  0
   -2.6193    1.0390    1.7786 C   0  0  0  0  0  0  0  0  0  0  0  0
   -2.1300   -0.1069    0.8813 C   0  0  0  0  0  0  0  0  0  0  0  0
   -3.1863   -1.2082    0.7334 C   0  0  0  0  0  0  0  0  0  0  0  0
  1  2  1  0
  2  3  1  0
  3  4  1  0
  4  5  1  0
  5  6  2  0
  5  7  1  0
  7  8  1  0
  8  9  1  0
  9 10  1  0
  5 11  1  0
 11 12  1  0
 12 13  1  0
 13 14  2  0
 13 15  1  0
 15 16  1  0
 16 17  1  0
 17 18  1  0
 18 19  1  0
 19 20  1  0
 20 21  1  0
 20 15  1  0
M  END
>  <target>  (39) 
-4.15

$$$$

     RDKit          3D

  8  7  0  0  0  0  0  0  0  0999 V2000
    3.7504   -0.0765    0.6904 C   0  0  0  0  0  0  0  0  0  0  0  0
    2.5789    0.0482   -0.2707 C   0  0  0  0  0  0  0  0  0  0  0  0
    1.2414   -0.0942    0.4552 C   0  0  0  0  0  0  0  0  0  0  0  0
    0.0657    0.0317   -0.5151 C   0  0  0  0  0  0  0  0  0  0  0  0
   -1.2738   -0.1108    0.2116 C   0  0  0  0  0  0  0  0  0  0  0  0
   -2.4492    0.0176   -0.7636 C   0  0  0  0  0  0  0  0  0  0  0  0
   -3.8142   -0.0447   -0.0761 C   0  0  0  0  0  0  0  0  0  0  0  0
   -4.3521   -2.0346    0.4917 I   0  0  0  0  0  0  0  0  0  0  0  0
  1  2  1  0
  2  3  1  0
  3  4  1  0
  4  5  1  0
  5  6  1  0
  6  7  1  0
  7  8  1  0
M  END
>  <target>  (40) 
-4.81

$$$$

     RDKit          3D

 13 14  0  0  0  0  0  0  0  0999 V2000
   -1.4617    0.9223   -0.7054 C   0  0  0  0  0  0  0  0  0  0  0  0
   -2.8562    0.8696   -0.7315 C   0  0  0  0  0  0  0  0  0  0  0  0
   -3.7391    2.0640   -1.6017 Cl  0  0  0  0  0  0  0  0  0  0  0  0
   -3.5401   -0.1409   -0.0609 C   0  0  0  0  0  0  0  0  0  0  0  0
   -2.8235   -1.1071    0.6413 C   0  0  0  0  0  0  0  0  0  0  0  0
   -1.4269   -1.0573    0.6687 C   0  0  0  0  0  0  0  0  0  0  0  0
   -0.7215   -0.0431   -0.0028 C   0  0  0  0  0  0  0  0  0  0  0  0
    0.7496    0.0059    0.0296 C   0  0  0  0  0  0  0  0  0  0  0  0
    1.4268    1.1692    0.4325 C   0  0  0  0  0  0  0  0  0  0  0  0
    2.8232    1.2164    0.4635 C   0  0  0  0  0  0  0  0  0  0  0  0
    3.5671    0.1000    0.0906 C   0  0  0  0  0  0  0  0  0  0  0  0
    2.9162   -1.0630   -0.3126 C   0  0  0  0  0  0  0  0  0  0  0  0
    1.5197   -1.1090   -0.3421 C   0  0  0  0  0  0  0  0  0  0  0  0
  1  2  2  0
  2  3  1  0
  2  4  1  0
  4  5  2  0
  5  6  1  0
  6  7  2  0
  7  8  1  0
  8  9  2  0
  9 10  1  0
 10 11  2  0
 11 12  1  0
 12 13  2  0
  7  1  1  0
 13  8  1  0
M  END
>  <target>  (41) 
-4.88

$$$$

     RDKit          3D

  6  5  0  0  0  0  0  0  0  0999 V2000
    2.9038   -0.7859    0.6978 O   0  0  0  0  0  0  0  0  0  0  0  0
    1.9768    0.0077   -0.0304 C   0  0  0  0  0  0  0  0  0  0  0  0
    0.5683   -0.4983    0.2467 C   0  0  0  0  0  0  0  0  0  0  0  0
   -0.4751    0.3108   -0.5202 C   0  0  0  0  0  0  0  0  0  0  0  0
   -1.8645   -0.1924   -0.2532 C   0  0  0  0  0  0  0  0  0  0  0  0
   -2.8348    0.5422    0.3050 C   0  0  0  0  0  0  0  0  0  0  0  0
  1  2  1  0
  2  3  1  0
  3  4  1  0
  4  5  1  0
  5  6  2  0
M  END
>  <target>  (42) 
-0.15

$$$$

     RDKit          3D

 12 13  0  0  0  0  0  0  0  0999 V2000
    3.9062    0.3177   -0.0748 O   0  0  0  0  0  0  0  0  0  0  0  0
    2.6848    0.2071   -0.0715 C   0  0  0  0  0  0  0  0  0  0  0  0
    2.0267   -0.4159   -1.0773 N   0  0  0  0  0  0  0  0  0  0  0  0
    0.6738   -0.6048   -1.1924 C   0  0  0  0  0  0  0  0  0  0  0  0
    0.2678   -1.2035   -2.1962 O   0  0  0  0  0  0  0  0  0  0  0  0
   -0.2578   -0.0599   -0.0647 C   0  0  0  0  0  0  0  0  0  0  0  0
   -1.4859    0.7662   -0.5908 C   0  0  0  0  0  0  0  0  0  0  0  0
   -2.3835    0.0005    0.3932 C   0  0  0  0  0  0  0  0  0  0  0  0
   -1.3140   -1.1008    0.4533 C   0  0  0  0  0  0  0  0  0  0  0  0
    0.5666    0.6458    1.0614 C   0  0  0  0  0  0  0  0  0  0  0  0
    0.0675    1.1630    2.0683 O   0  0  0  0  0  0  0  0  0  0  0  0
    1.9310    0.7024    0.9383 N   0  0  0  0  0  0  0  0  0  0  0  0
  1  2  2  0
  2  3  1  0
  3  4  1  0
  4  5  2  0
  4  6  1  0
  6  7  1  0
  7  8  1  0
  8  9  1  0
  6 10  1  0
 10 11  2  0
 10 12  1  0
  9  6  1  0
 12  2  1  0
M  END
>  <target>  (43) 
-1.655

$$$$

     RDKit          3D

 11 11  0  0  0  0  0  0  0  0999 V2000
   -2.6026   -0.3368    1.2540 C   0  0  0  0  0  0  0  0  0  0  0  0
   -2.1878    0.3709   -0.0388 C   0  0  0  0  0  0  0  0  0  0  0  0
   -3.0154   -0.1755   -1.2082 C   0  0  0  0  0  0  0  0  0  0  0  0
   -0.6593    0.3118   -0.3366 C   0  0  0  0  0  0  0  0  0  0  0  0
   -0.1181   -1.1175   -0.5230 C   0  0  0  0  0  0  0  0  0  0  0  0
    1.3723   -1.1224   -0.8664 C   0  0  0  0  0  0  0  0  0  0  0  0
    2.2019   -0.3769    0.1846 C   0  0  0  0  0  0  0  0  0  0  0  0
    3.6782   -0.3576   -0.2067 C   0  0  0  0  0  0  0  0  0  0  0  0
    1.6733    1.0472    0.3756 C   0  0  0  0  0  0  0  0  0  0  0  0
    0.1826    1.0569    0.7236 C   0  0  0  0  0  0  0  0  0  0  0  0
   -0.2464    2.4111    0.8408 O   0  0  0  0  0  0  0  0  0  0  0  0
  1  2  1  0
  2  3  1  0
  2  4  1  0
  4  5  1  0
  5  6  1  0
  6  7  1  0
  7  8  1  0
  7  9  1  0
  9 10  1  0
 10 11  1  0
 10  4  1  0
M  END
>  <target>  (44) 
-2.53

$$$$

     RDKit          3D

  6  5  0  0  0  0  0  0  0  0999 V2000
   -1.0233   -1.1928   -0.6385 C   0  0  0  0  0  0  0  0  0  0  0  0
   -0.0684   -0.0497   -0.3159 C   0  0  0  0  0  0  0  0  0  0  0  0
   -0.8105    1.0988    0.3584 C   0  0  0  0  0  0  0  0  0  0  0  0
    0.9314   -0.5705    0.5799 O   0  0  0  0  0  0  0  0  0  0  0  0
    2.1208    0.0804    0.5836 C   0  0  0  0  0  0  0  0  0  0  0  0
    2.4264    1.0529   -0.0865 O   0  0  0  0  0  0  0  0  0  0  0  0
  1  2  1  0
  2  3  1  0
  2  4  1  0
  4  5  1  0
  5  6  2  0
M  END
>  <target>  (45) 
-0.63

$$$$

     RDKit          3D

  8  7  0  0  0  0  0  0  0  0999 V2000
    3.8613   -0.6083   -0.3170 C   0  0  0  0  0  0  0  0  0  0  0  0
    2.6499    0.0595    0.3139 C   0  0  0  0  0  0  0  0  0  0  0  0
    1.3583   -0.3291   -0.4052 C   0  0  0  0  0  0  0  0  0  0  0  0
    0.1418    0.3451    0.2325 C   0  0  0  0  0  0  0  0  0  0  0  0
   -1.1520   -0.0446   -0.4901 C   0  0  0  0  0  0  0  0  0  0  0  0
   -2.3790    0.6496    0.1102 C   0  0  0  0  0  0  0  0  0  0  0  0
   -3.6479    0.3026   -0.6568 C   0  0  0  0  0  0  0  0  0  0  0  0
   -2.5463    0.2596    1.4706 O   0  0  0  0  0  0  0  0  0  0  0  0
  1  2  1  0
  2  3  1  0
  3  4  1  0
  4  5  1  0
  5  6  1  0
  6  7  1  0
  6  8  1  0
M  END
>  <target>  (46) 
-1.55

$$$$

     RDKit          3D

 11 11  0  0  0  0  0  0  0  0999 V2000
    3.4981    0.1703    0.0813 C   0  0  0  0  0  0  0  0  0  0  0  0
    2.1331   -0.3991    0.3793 C   0  0  0  0  0  0  0  0  0  0  0  0
    2.0140   -1.4368    1.0203 O   0  0  0  0  0  0  0  0  0  0  0  0
    1.1176    0.3626   -0.1708 N   0  0  0  0  0  0  0  0  0  0  0  0
   -0.2704    0.1263   -0.0947 C   0  0  0  0  0  0  0  0  0  0  0  0
   -1.1107    1.0395   -0.7471 C   0  0  0  0  0  0  0  0  0  0  0  0
   -2.4996    0.8787   -0.7200 C   0  0  0  0  0  0  0  0  0  0  0  0
   -3.0552   -0.1993   -0.0377 C   0  0  0  0  0  0  0  0  0  0  0  0
   -4.9312   -0.4214    0.0023 Br  0  0  0  0  0  0  0  0  0  0  0  0
   -2.2341   -1.1138    0.6153 C   0  0  0  0  0  0  0  0  0  0  0  0
   -0.8441   -0.9499    0.5861 C   0  0  0  0  0  0  0  0  0  0  0  0
  1  2  1  0
  2  3  2  0
  2  4  1  0
  4  5  1  0
  5  6  2  0
  6  7  1  0
  7  8  2  0
  8  9  1  0
  8 10  1  0
 10 11  2  0
 11  5  1  0
M  END
>  <target>  (47) 
-3.083

$$$$

     RDKit          3D

 15 16  0  0  0  0  0  0  0  0999 V2000
   -1.9763   -0.7181    0.8757 C   0  0  0  0  0  0  0  0  0  0  0  0
   -3.3728   -0.7163    0.7470 C   0  0  0  0  0  0  0  0  0  0  0  0
   -3.9801   -0.0793   -0.3284 C   0  0  0  0  0  0  0  0  0  0  0  0
   -3.1916    0.5574   -1.2771 C   0  0  0  0  0  0  0  0  0  0  0  0
   -1.7979    0.5535   -1.1450 C   0  0  0  0  0  0  0  0  0  0  0  0
   -1.1512   -0.0848   -0.0657 C   0  0  0  0  0  0  0  0  0  0  0  0
    0.2914   -0.0598    0.0287 N   0  0  0  0  0  0  0  0  0  0  0  0
    0.8905    0.6405   -1.0001 N   0  0  0  0  0  0  0  0  0  0  0  0
    2.1744    0.7322   -1.0111 C   0  0  0  0  0  0  0  0  0  0  0  0
    3.1145    0.1761   -0.0182 C   0  0  0  0  0  0  0  0  0  0  0  0
    4.4676    0.4160   -0.2055 N   0  0  0  0  0  0  0  0  0  0  0  0
    2.5272   -0.5164    0.9680 C   0  0  0  0  0  0  0  0  0  0  0  0
    3.5566   -1.3047    2.3356 Br  0  0  0  0  0  0  0  0  0  0  0  0
    1.0346   -0.6839    1.0459 C   0  0  0  0  0  0  0  0  0  0  0  0
    0.5718   -1.3380    1.9809 O   0  0  0  0  0  0  0  0  0  0  0  0
  1  2  2  0
  2  3  1  0
  3  4  2  0
  4  5  1  0
  5  6  2  0
  6  7  1  0
  7  8  1  0
  8  9  2  0
  9 10  1  0
 10 11  1  0
 10 12  2  0
 12 13  1  0
 12 14  1  0
 14 15  2  0
  6  1  1  0
 14  7  1  0
M  END
>  <target>  (48) 
-3.127

$$$$

     RDKit          3D

 25 26  0  0  0  0  0  0  0  0999 V2000
    3.5007    1.8062    2.0059 C   0  0  0  0  0  0  0  0  0  0  0  0
    2.7636    0.8137    1.2927 O   0  0  0  0  0  0  0  0  0  0  0  0
    2.2816    1.2399    0.1020 C   0  0  0  0  0  0  0  0  0  0  0  0
    2.4589    2.3293   -0.4174 O   0  0  0  0  0  0  0  0  0  0  0  0
    1.5028    0.1473   -0.5045 C   0  0  0  0  0  0  0  0  0  0  0  0
    1.9602   -0.5136   -1.5896 C   0  0  0  0  0  0  0  0  0  0  0  0
    3.2607   -0.2173   -2.2912 C   0  0  0  0  0  0  0  0  0  0  0  0
    1.2168   -1.5625   -2.1071 N   0  0  0  0  0  0  0  0  0  0  0  0
    0.0647   -2.0710   -1.5248 C   0  0  0  0  0  0  0  0  0  0  0  0
   -0.4616   -1.4596   -0.4380 C   0  0  0  0  0  0  0  0  0  0  0  0
    0.1757   -0.2005    0.1600 C   0  0  0  0  0  0  0  0  0  0  0  0
   -0.8025    0.9826    0.0925 C   0  0  0  0  0  0  0  0  0  0  0  0
   -1.2120    1.4621   -1.1703 C   0  0  0  0  0  0  0  0  0  0  0  0
   -2.1305    2.5099   -1.2904 C   0  0  0  0  0  0  0  0  0  0  0  0
   -2.6713    3.1069   -0.1547 C   0  0  0  0  0  0  0  0  0  0  0  0
   -2.2904    2.6610    1.1076 C   0  0  0  0  0  0  0  0  0  0  0  0
   -1.3619    1.6134    1.2220 C   0  0  0  0  0  0  0  0  0  0  0  0
   -1.0050    1.2171    2.5745 N   0  0  0  0  0  0  0  0  0  0  0  0
   -1.9224    0.8238    3.3074 O   0  0  0  0  0  0  0  0  0  0  0  0
    0.1822    1.3306    2.9032 O   0  0  0  0  0  0  0  0  0  0  0  0
   -1.7034   -1.9573    0.1983 C   0  0  0  0  0  0  0  0  0  0  0  0
   -2.6871   -2.3503   -0.4077 O   0  0  0  0  0  0  0  0  0  0  0  0
   -1.5687   -1.8928    1.5455 O   0  0  0  0  0  0  0  0  0  0  0  0
   -2.7216   -2.3281    2.2689 C   0  0  0  0  0  0  0  0  0  0  0  0
   -0.4928   -3.3212   -2.1585 C   0  0  0  0  0  0  0  0  0  0  0  0
  1  2  1  0
  2  3  1  0
  3  4  2  0
  3  5  1  0
  5  6  2  0
  6  7  1  0
  6  8  1  0
  8  9  1  0
  9 10  2  0
 10 11  1  0
 11 12  1  0
 12 13  2  0
 13 14  1  0
 14 15  2  0
 15 16  1  0
 16 17  2  0
 17 18  1  0
 18 19  1  0
 18 20  2  0
 10 21  1  0
 21 22  2  0
 21 23  1  0
 23 24  1  0
  9 25  1  0
 11  5  1  0
 17 12  1  0
M  CHG  2  18   1  19  -1
M  END
>  <target>  (49) 
-4.76

$$$$

     RDKit          3D

 12 13  0  0  0  0  0  0  0  0999 V2000
   -2.3423    0.9972    0.4395 C   0  0  0  0  0  0  0  0  0  0  0  0
   -2.3516   -0.2362   -0.2132 C   0  0  0  0  0  0  0  0  0  0  0  0
   -3.6430   -0.8618   -0.6490 C   0  0  0  0  0  0  0  0  0  0  0  0
   -1.1281   -0.8586   -0.5083 C   0  0  0  0  0  0  0  0  0  0  0  0
    0.0925   -0.2993   -0.1506 C   0  0  0  0  0  0  0  0  0  0  0  0
    1.2328   -0.9470   -0.4530 N   0  0  0  0  0  0  0  0  0  0  0  0
    2.4129   -0.3865   -0.0961 C   0  0  0  0  0  0  0  0  0  0  0  0
    3.6619   -1.1372   -0.4487 C   0  0  0  0  0  0  0  0  0  0  0  0
    2.4954    0.8296    0.5685 C   0  0  0  0  0  0  0  0  0  0  0  0
    1.3167    1.4984    0.8790 C   0  0  0  0  0  0  0  0  0  0  0  0
    0.0848    0.9393    0.5208 C   0  0  0  0  0  0  0  0  0  0  0  0
   -1.1314    1.5808    0.8103 C   0  0  0  0  0  0  0  0  0  0  0  0
  1  2  2  0
  2  3  1  0
  2  4  1  0
  4  5  2  0
  5  6  1  0
  6  7  2  0
  7  8  1  0
  7  9  1  0
  9 10  2  0
 10 11  1  0
 11 12  2  0
 11  5  1  0
 12  1  1  0
M  END
>  <target>  (50) 
-1.94

$$$$

     RDKit          3D

  8  7  0  0  0  0  0  0  0  0999 V2000
   -2.6727    1.1826    0.5779 C   0  0  0  0  0  0  0  0  0  0  0  0
   -2.3165    0.5813   -0.7728 C   0  0  0  0  0  0  0  0  0  0  0  0
   -1.2915   -0.5516   -0.6864 C   0  0  0  0  0  0  0  0  0  0  0  0
    0.0848   -0.0887   -0.2014 C   0  0  0  0  0  0  0  0  0  0  0  0
    1.0982   -1.2391   -0.2363 C   0  0  0  0  0  0  0  0  0  0  0  0
    2.4737   -0.8363    0.2982 C   0  0  0  0  0  0  0  0  0  0  0  0
    3.1698    0.0982   -0.5990 C   0  0  0  0  0  0  0  0  0  0  0  0
    3.7420    0.8609   -1.3292 C   0  0  0  0  0  0  0  0  0  0  0  0
  1  2  1  0
  2  3  1  0
  3  4  1  0
  4  5  1  0
  5  6  1  0
  6  7  1  0
  7  8  3  0
M  END
>  <target>  (51) 
-3.66

$$$$

     RDKit          3D

 17 18  0  0  0  0  0  0  0  0999 V2000
   -2.7518   -2.1293   -0.0405 C   0  0  0  0  0  0  0  0  0  0  0  0
   -1.2780   -1.7572   -0.2029 C   0  0  0  0  0  0  0  0  0  0  0  0
   -0.9612   -0.2512    0.0009 C   0  0  0  0  0  0  0  0  0  0  0  0
   -1.7460    0.5889   -1.0208 C   0  0  0  0  0  0  0  0  0  0  0  0
   -2.0741    0.1892   -2.1379 O   0  0  0  0  0  0  0  0  0  0  0  0
   -2.0321    1.8773   -0.6580 N   0  0  0  0  0  0  0  0  0  0  0  0
   -2.1277    2.3179    0.6223 C   0  0  0  0  0  0  0  0  0  0  0  0
   -2.7408    3.3432    0.9010 O   0  0  0  0  0  0  0  0  0  0  0  0
   -1.5979    1.5269    1.5894 N   0  0  0  0  0  0  0  0  0  0  0  0
   -1.3239    0.1974    1.4233 C   0  0  0  0  0  0  0  0  0  0  0  0
   -1.3284   -0.5502    2.4007 O   0  0  0  0  0  0  0  0  0  0  0  0
    0.5740   -0.0377   -0.1851 C   0  0  0  0  0  0  0  0  0  0  0  0
    1.1341    0.4748   -1.3033 C   0  0  0  0  0  0  0  0  0  0  0  0
    2.6072    0.7022   -1.5010 C   0  0  0  0  0  0  0  0  0  0  0  0
    3.4207    0.5763   -0.2171 C   0  0  0  0  0  0  0  0  0  0  0  0
    2.9497   -0.6173    0.5992 C   0  0  0  0  0  0  0  0  0  0  0  0
    1.4709   -0.4755    0.9684 C   0  0  0  0  0  0  0  0  0  0  0  0
  1  2  1  0
  2  3  1  0
  3  4  1  0
  4  5  2  0
  4  6  1  0
  6  7  1  0
  7  8  2  0
  7  9  1  0
  9 10  1  0
 10 11  2  0
  3 12  1  0
 12 13  2  0
 13 14  1  0
 14 15  1  0
 15 16  1  0
 16 17  1  0
 10  3  1  0
 17 12  1  0
M  END
>  <target>  (52) 
-2.17

$$$$

     RDKit          3D

 18 21  0  0  0  0  0  0  0  0999 V2000
   -4.6711    0.1409    0.4494 C   0  0  0  0  0  0  0  0  0  0  0  0
   -4.2114   -1.1565    0.2950 C   0  0  0  0  0  0  0  0  0  0  0  0
   -2.8400   -1.3988    0.1615 C   0  0  0  0  0  0  0  0  0  0  0  0
   -1.8736   -0.3572    0.1769 C   0  0  0  0  0  0  0  0  0  0  0  0
   -2.3782    0.9550    0.3363 C   0  0  0  0  0  0  0  0  0  0  0  0
   -3.7581    1.1903    0.4698 C   0  0  0  0  0  0  0  0  0  0  0  0
   -1.4984    2.0318    0.3619 C   0  0  0  0  0  0  0  0  0  0  0  0
   -0.1245    1.8342    0.2323 C   0  0  0  0  0  0  0  0  0  0  0  0
    0.4470    0.5550    0.0704 C   0  0  0  0  0  0  0  0  0  0  0  0
    1.8736    0.3572   -0.0635 C   0  0  0  0  0  0  0  0  0  0  0  0
    2.8400    1.3988   -0.0482 C   0  0  0  0  0  0  0  0  0  0  0  0
    4.2114    1.1565   -0.1816 C   0  0  0  0  0  0  0  0  0  0  0  0
    4.6711   -0.1409   -0.3361 C   0  0  0  0  0  0  0  0  0  0  0  0
    3.7581   -1.1903   -0.3565 C   0  0  0  0  0  0  0  0  0  0  0  0
    2.3782   -0.9550   -0.2230 C   0  0  0  0  0  0  0  0  0  0  0  0
    1.4984   -2.0318   -0.2486 C   0  0  0  0  0  0  0  0  0  0  0  0
    0.1245   -1.8342   -0.1190 C   0  0  0  0  0  0  0  0  0  0  0  0
   -0.4470   -0.5550    0.0430 C   0  0  0  0  0  0  0  0  0  0  0  0
  1  2  2  0
  2  3  1  0
  3  4  2  0
  4  5  1  0
  5  6  2  0
  5  7  1  0
  7  8  2  0
  8  9  1  0
  9 10  2  0
 10 11  1  0
 11 12  2  0
 12 13  1  0
 13 14  2  0
 14 15  1  0
 15 16  2  0
 16 17  1  0
 17 18  2  0
  6  1  1  0
 18  4  1  0
 18  9  1  0
 15 10  1  0
M  END
>  <target>  (53) 
-8.057

$$$$

     RDKit          3D

 14 14  0  0  0  0  0  0  0  0999 V2000
   -2.2064    1.4780    1.2562 C   0  0  0  0  0  0  0  0  0  0  0  0
   -2.4759    0.7083   -0.0303 C   0  0  0  0  0  0  0  0  0  0  0  0
   -1.6625   -0.5989   -0.1240 C   0  0  0  0  0  0  0  0  0  0  0  0
   -2.0590   -1.4082   -1.3646 C   0  0  0  0  0  0  0  0  0  0  0  0
   -0.2024   -0.3891   -0.0530 N   0  0  0  0  0  0  0  0  0  0  0  0
    0.4266    0.3590   -1.0313 C   0  0  0  0  0  0  0  0  0  0  0  0
   -0.1296    0.8870   -1.9912 O   0  0  0  0  0  0  0  0  0  0  0  0
    1.7767    0.5103   -0.9011 N   0  0  0  0  0  0  0  0  0  0  0  0
    2.5488   -0.0147    0.1022 C   0  0  0  0  0  0  0  0  0  0  0  0
    4.0124    0.3193   -0.0026 C   0  0  0  0  0  0  0  0  0  0  0  0
    1.9742   -0.7567    1.0633 C   0  0  0  0  0  0  0  0  0  0  0  0
    2.8961   -1.5387    2.4935 Br  0  0  0  0  0  0  0  0  0  0  0  0
    0.4907   -0.9856    0.9989 C   0  0  0  0  0  0  0  0  0  0  0  0
   -0.0613   -1.6767    1.8566 O   0  0  0  0  0  0  0  0  0  0  0  0
  1  2  1  0
  2  3  1  0
  3  4  1  0
  3  5  1  0
  5  6  1  0
  6  7  2  0
  6  8  1  0
  8  9  1  0
  9 10  1  0
  9 11  2  0
 11 12  1  0
 11 13  1  0
 13 14  2  0
 13  5  1  0
M  END
>  <target>  (54) 
-2.523

$$$$

     RDKit          3D

 18 19  0  0  0  0  0  0  0  0999 V2000
    4.1383   -1.2803    1.6799 Cl  0  0  0  0  0  0  0  0  0  0  0  0
    2.9998   -0.3852    0.7336 C   0  0  0  0  0  0  0  0  0  0  0  0
    3.5075    0.6187   -0.0958 C   0  0  0  0  0  0  0  0  0  0  0  0
    2.6467    1.3777   -0.8846 C   0  0  0  0  0  0  0  0  0  0  0  0
    1.2739    1.1356   -0.8472 C   0  0  0  0  0  0  0  0  0  0  0  0
    0.7367    0.1299   -0.0201 C   0  0  0  0  0  0  0  0  0  0  0  0
    1.6190   -0.6351    0.7769 C   0  0  0  0  0  0  0  0  0  0  0  0
    0.9796   -1.8828    1.8066 Cl  0  0  0  0  0  0  0  0  0  0  0  0
   -0.7291   -0.0881   -0.0162 C   0  0  0  0  0  0  0  0  0  0  0  0
   -1.5643    0.6070    0.8935 C   0  0  0  0  0  0  0  0  0  0  0  0
   -0.8664    1.7512    2.0056 Cl  0  0  0  0  0  0  0  0  0  0  0  0
   -2.9504    0.3818    0.9020 C   0  0  0  0  0  0  0  0  0  0  0  0
   -4.0220    1.2003    1.9856 Cl  0  0  0  0  0  0  0  0  0  0  0  0
   -3.5209   -0.5280    0.0131 C   0  0  0  0  0  0  0  0  0  0  0  0
   -2.7170   -1.2187   -0.8925 C   0  0  0  0  0  0  0  0  0  0  0  0
   -3.5085   -2.3223   -1.9640 Cl  0  0  0  0  0  0  0  0  0  0  0  0
   -1.3293   -1.0055   -0.9144 C   0  0  0  0  0  0  0  0  0  0  0  0
   -0.3383   -1.8709   -2.0555 Cl  0  0  0  0  0  0  0  0  0  0  0  0
  1  2  1  0
  2  3  2  0
  3  4  1  0
  4  5  2  0
  5  6  1  0
  6  7  2  0
  7  8  1  0
  6  9  1  0
  9 10  2  0
 10 11  1  0
 10 12  1  0
 12 13  1  0
 12 14  2  0
 14 15  1  0
 15 16  1  0
 15 17  2  0
 17 18  1  0
  7  2  1  0
 17  9  1  0
M  END
>  <target>  (55) 
-8.6

$$$$

     RDKit          3D

  8  8  0  0  0  0  0  0  0  0999 V2000
    2.2172    0.0325    0.1303 C   0  0  0  0  0  0  0  0  0  0  0  0
    0.7281   -0.1278    0.0336 C   0  0  0  0  0  0  0  0  0  0  0  0
    0.1567   -1.4020   -0.0838 C   0  0  0  0  0  0  0  0  0  0  0  0
   -1.2288   -1.5527   -0.1738 C   0  0  0  0  0  0  0  0  0  0  0  0
   -2.0568   -0.4317   -0.1474 C   0  0  0  0  0  0  0  0  0  0  0  0
   -1.5019    0.8424   -0.0310 C   0  0  0  0  0  0  0  0  0  0  0  0
   -0.1175    0.9860    0.0585 C   0  0  0  0  0  0  0  0  0  0  0  0
    0.4395    2.2290    0.1730 O   0  0  0  0  0  0  0  0  0  0  0  0
  1  2  1  0
  2  3  2  0
  3  4  1  0
  4  5  2  0
  5  6  1  0
  6  7  2  0
  7  8  1  0
  7  2  1  0
M  END
>  <target>  (56) 
-0.62

$$$$

     RDKit          3D

  9  8  0  0  0  0  0  0  0  0999 V2000
    2.7638    0.6103    0.8155 C   0  0  0  0  0  0  0  0  0  0  0  0
    2.1389   -0.6000    0.1201 C   0  0  0  0  0  0  0  0  0  0  0  0
    3.0636   -1.0845   -0.9999 C   0  0  0  0  0  0  0  0  0  0  0  0
    0.7397   -0.2959   -0.4533 C   0  0  0  0  0  0  0  0  0  0  0  0
   -0.2945    0.0555    0.6266 C   0  0  0  0  0  0  0  0  0  0  0  0
   -1.7550    0.2339    0.1279 C   0  0  0  0  0  0  0  0  0  0  0  0
   -1.8508    1.3475   -0.9277 C   0  0  0  0  0  0  0  0  0  0  0  0
   -2.3073   -1.0739   -0.4632 C   0  0  0  0  0  0  0  0  0  0  0  0
   -2.6287    0.6278    1.3356 C   0  0  0  0  0  0  0  0  0  0  0  0
  1  2  1  0
  2  3  1  0
  2  4  1  0
  4  5  1  0
  5  6  1  0
  6  7  1  0
  6  8  1  0
  6  9  1  0
M  END
>  <target>  (57) 
-5.05

$$$$

     RDKit          3D

 12 13  0  0  0  0  0  0  0  0999 V2000
   -3.0401   -0.4489   -0.0559 C   0  0  0  0  0  0  0  0  0  0  0  0
   -1.5455   -0.6448   -0.0585 C   0  0  0  0  0  0  0  0  0  0  0  0
   -1.0510   -1.9521   -0.1490 C   0  0  0  0  0  0  0  0  0  0  0  0
    0.3177   -2.1937   -0.1558 C   0  0  0  0  0  0  0  0  0  0  0  0
    1.2308   -1.1349   -0.0724 C   0  0  0  0  0  0  0  0  0  0  0  0
    2.7020   -1.4624   -0.0847 C   0  0  0  0  0  0  0  0  0  0  0  0
    0.7582    0.2014    0.0204 C   0  0  0  0  0  0  0  0  0  0  0  0
    1.6355    1.3073    0.1070 C   0  0  0  0  0  0  0  0  0  0  0  0
    1.1661    2.6178    0.1979 C   0  0  0  0  0  0  0  0  0  0  0  0
   -0.1975    2.8585    0.2048 C   0  0  0  0  0  0  0  0  0  0  0  0
   -1.0880    1.7880    0.1206 C   0  0  0  0  0  0  0  0  0  0  0  0
   -0.6432    0.4487    0.0274 C   0  0  0  0  0  0  0  0  0  0  0  0
  1  2  1  0
  2  3  2  0
  3  4  1  0
  4  5  2  0
  5  6  1  0
  5  7  1  0
  7  8  2  0
  8  9  1  0
  9 10  2  0
 10 11  1  0
 11 12  2  0
 12  2  1  0
 12  7  1  0
M  END
>  <target>  (58) 
-4.14

$$$$

     RDKit          3D

 19 22  0  0  0  0  0  0  0  0999 V2000
   -1.9624    3.0447    0.1484 C   0  0  0  0  0  0  0  0  0  0  0  0
   -1.4068    1.6430    0.0932 C   0  0  0  0  0  0  0  0  0  0  0  0
   -0.0128    1.4883    0.0369 C   0  0  0  0  0  0  0  0  0  0  0  0
    0.6300    0.2348   -0.0180 C   0  0  0  0  0  0  0  0  0  0  0  0
    2.0717    0.1071   -0.0753 C   0  0  0  0  0  0  0  0  0  0  0  0
    2.9839    1.1974   -0.0829 C   0  0  0  0  0  0  0  0  0  0  0  0
    4.3708    1.0212   -0.1394 C   0  0  0  0  0  0  0  0  0  0  0  0
    4.9024   -0.2566   -0.1907 C   0  0  0  0  0  0  0  0  0  0  0  0
    4.0453   -1.3520   -0.1853 C   0  0  0  0  0  0  0  0  0  0  0  0
    2.6506   -1.1823   -0.1287 C   0  0  0  0  0  0  0  0  0  0  0  0
    1.8294   -2.3033   -0.1252 C   0  0  0  0  0  0  0  0  0  0  0  0
    0.4427   -2.1703   -0.0698 C   0  0  0  0  0  0  0  0  0  0  0  0
   -0.2043   -0.9162   -0.0148 C   0  0  0  0  0  0  0  0  0  0  0  0
   -1.6439   -0.7850    0.0426 C   0  0  0  0  0  0  0  0  0  0  0  0
   -2.5333   -1.8949    0.0489 C   0  0  0  0  0  0  0  0  0  0  0  0
   -3.9221   -1.7570    0.1045 C   0  0  0  0  0  0  0  0  0  0  0  0
   -4.4809   -0.4952    0.1565 C   0  0  0  0  0  0  0  0  0  0  0  0
   -3.6466    0.6192    0.1524 C   0  0  0  0  0  0  0  0  0  0  0  0
   -2.2362    0.5048    0.0965 C   0  0  0  0  0  0  0  0  0  0  0  0
  1  2  1  0
  2  3  2  0
  3  4  1  0
  4  5  2  0
  5  6  1  0
  6  7  2  0
  7  8  1  0
  8  9  2  0
  9 10  1  0
 10 11  2  0
 11 12  1  0
 12 13  2  0
 13 14  1  0
 14 15  2  0
 15 16  1  0
 16 17  2  0
 17 18  1  0
 18 19  2  0
 19  2  1  0
 13  4  1  0
 10  5  1  0
 19 14  1  0
M  END
>  <target>  (59) 
-6.57

$$$$

     RDKit          3D

  6  5  0  0  0  0  0  0  0  0999 V2000
   -2.4420    0.3382   -0.0459 C   0  0  0  0  0  0  0  0  0  0  0  0
   -1.2125   -0.4796    0.3142 C   0  0  0  0  0  0  0  0  0  0  0  0
    0.0745    0.2570   -0.0453 C   0  0  0  0  0  0  0  0  0  0  0  0
    1.3187   -0.5400    0.3050 C   0  0  0  0  0  0  0  0  0  0  0  0
    1.2738   -1.6554    0.8214 O   0  0  0  0  0  0  0  0  0  0  0  0
    2.6374    0.1139   -0.0168 C   0  0  0  0  0  0  0  0  0  0  0  0
  1  2  1  0
  2  3  1  0
  3  4  1  0
  4  5  2  0
  4  6  1  0
M  END
>  <target>  (60) 
-0.19

$$$$

     RDKit          3D

 20 21  0  0  0  0  0  0  0  0999 V2000
    3.6492    1.1903    2.6248 Cl  0  0  0  0  0  0  0  0  0  0  0  0
    2.7931    0.4916    1.2946 C   0  0  0  0  0  0  0  0  0  0  0  0
    3.5518   -0.1540    0.3190 C   0  0  0  0  0  0  0  0  0  0  0  0
    2.9261   -0.7396   -0.7809 C   0  0  0  0  0  0  0  0  0  0  0  0
    3.9420   -1.5195   -1.9430 Cl  0  0  0  0  0  0  0  0  0  0  0  0
    1.5298   -0.6835   -0.9139 C   0  0  0  0  0  0  0  0  0  0  0  0
    0.7559   -1.4173   -2.2904 Cl  0  0  0  0  0  0  0  0  0  0  0  0
    0.7405   -0.0321    0.0665 C   0  0  0  0  0  0  0  0  0  0  0  0
    1.3958    0.5566    1.1766 C   0  0  0  0  0  0  0  0  0  0  0  0
    0.4553    1.3647    2.3992 Cl  0  0  0  0  0  0  0  0  0  0  0  0
   -0.7405    0.0321   -0.0665 C   0  0  0  0  0  0  0  0  0  0  0  0
   -1.3623    1.1095   -0.7455 C   0  0  0  0  0  0  0  0  0  0  0  0
   -0.3801    2.3729   -1.4321 Cl  0  0  0  0  0  0  0  0  0  0  0  0
   -2.7598    1.1626   -0.8665 C   0  0  0  0  0  0  0  0  0  0  0  0
   -3.5760    2.4504   -1.6828 Cl  0  0  0  0  0  0  0  0  0  0  0  0
   -3.5518    0.1540   -0.3190 C   0  0  0  0  0  0  0  0  0  0  0  0
   -2.9594   -0.9145    0.3529 C   0  0  0  0  0  0  0  0  0  0  0  0
   -4.0152   -2.1211    1.0010 Cl  0  0  0  0  0  0  0  0  0  0  0  0
   -1.5633   -0.9826    0.4827 C   0  0  0  0  0  0  0  0  0  0  0  0
   -0.8311   -2.3204    1.3233 Cl  0  0  0  0  0  0  0  0  0  0  0  0
  1  2  1  0
  2  3  2  0
  3  4  1  0
  4  5  1  0
  4  6  2  0
  6  7  1  0
  6  8  1  0
  8  9  2  0
  9 10  1  0
  8 11  1  0
 11 12  2  0
 12 13  1  0
 12 14  1  0
 14 15  1  0
 14 16  2  0
 16 17  1  0
 17 18  1  0
 17 19  2  0
 19 20  1  0
  9  2  1  0
 19 11  1  0
M  END
>  <target>  (61) 
-9.15

$$$$

     RDKit          3D

  8  7  0  0  0  0  0  0  0  0999 V2000
   -3.6070   -0.2626   -0.4278 C   0  0  0  0  0  0  0  0  0  0  0  0
   -2.2528    0.3121   -0.8021 C   0  0  0  0  0  0  0  0  0  0  0  0
   -1.1281   -0.3042    0.0206 C   0  0  0  0  0  0  0  0  0  0  0  0
    0.1066    0.2936   -0.3971 O   0  0  0  0  0  0  0  0  0  0  0  0
    1.2049   -0.1713    0.2643 C   0  0  0  0  0  0  0  0  0  0  0  0
    1.1885   -1.0213    1.1428 O   0  0  0  0  0  0  0  0  0  0  0  0
    2.4365    0.5279   -0.2590 C   0  0  0  0  0  0  0  0  0  0  0  0
    3.7002    0.0550    0.4378 C   0  0  0  0  0  0  0  0  0  0  0  0
  1  2  1  0
  2  3  1  0
  3  4  1  0
  4  5  1  0
  5  6  2  0
  5  7  1  0
  7  8  1  0
M  END
>  <target>  (62) 
-0.82

$$$$

     RDKit          3D

 28 31  0  0  0  0  0  0  0  0999 V2000
   -1.5368   -2.3213    0.6016 C   0  0  0  0  0  0  0  0  0  0  0  0
   -1.6065   -0.9052   -0.0286 C   0  0  0  0  0  0  0  0  0  0  0  0
   -1.3844    0.1306    1.0872 C   0  0  0  0  0  0  0  0  0  0  0  0
    0.0113    0.0876    1.7259 C   0  0  0  0  0  0  0  0  0  0  0  0
    0.0983    1.2216    2.5872 O   0  0  0  0  0  0  0  0  0  0  0  0
    1.1789   -0.0233    0.6889 C   0  0  0  0  0  0  0  0  0  0  0  0
    1.5521   -1.3630    0.7148 F   0  0  0  0  0  0  0  0  0  0  0  0
    0.6651    0.2054   -0.7651 C   0  0  0  0  0  0  0  0  0  0  0  0
    1.7892    0.0364   -1.8121 C   0  0  0  0  0  0  0  0  0  0  0  0
    3.0335    0.8524   -1.4967 C   0  0  0  0  0  0  0  0  0  0  0  0
    3.5112    0.5337   -0.1068 C   0  0  0  0  0  0  0  0  0  0  0  0
    4.7356    0.0141    0.0916 C   0  0  0  0  0  0  0  0  0  0  0  0
    5.2114   -0.3643    1.4367 C   0  0  0  0  0  0  0  0  0  0  0  0
    6.3296   -0.8332    1.6068 O   0  0  0  0  0  0  0  0  0  0  0  0
    4.2866   -0.1554    2.5649 C   0  0  0  0  0  0  0  0  0  0  0  0
    3.0685    0.3665    2.3707 C   0  0  0  0  0  0  0  0  0  0  0  0
    2.4952    0.7951    1.0202 C   0  0  0  0  0  0  0  0  0  0  0  0
    2.2784    2.3273    1.0846 C   0  0  0  0  0  0  0  0  0  0  0  0
   -0.4910   -0.7744   -1.1140 C   0  0  0  0  0  0  0  0  0  0  0  0
   -1.1981   -0.3915   -2.4257 C   0  0  0  0  0  0  0  0  0  0  0  0
   -2.6046   -0.9454   -2.2869 C   0  0  0  0  0  0  0  0  0  0  0  0
   -2.6181   -2.3545   -2.5530 O   0  0  0  0  0  0  0  0  0  0  0  0
   -2.9635   -0.7122   -0.8037 C   0  0  0  0  0  0  0  0  0  0  0  0
   -3.9474   -1.6810   -0.4211 O   0  0  0  0  0  0  0  0  0  0  0  0
   -3.6089    0.6803   -0.6652 C   0  0  0  0  0  0  0  0  0  0  0  0
   -3.2668    1.6423   -1.3616 O   0  0  0  0  0  0  0  0  0  0  0  0
   -4.6881    0.8467    0.4000 C   0  0  0  0  0  0  0  0  0  0  0  0
   -4.8691    2.2159    0.7373 O   0  0  0  0  0  0  0  0  0  0  0  0
  1  2  1  0
  2  3  1  0
  3  4  1  0
  4  5  1  0
  4  6  1  0
  6  7  1  0
  6  8  1  0
  8  9  1  0
  9 10  1  0
 10 11  1  0
 11 12  2  0
 12 13  1  0
 13 14  2  0
 13 15  1  0
 15 16  2  0
 16 17  1  0
 17 18  1  0
  8 19  1  0
 19 20  1  0
 20 21  1  0
 21 22  1  0
 21 23  1  0
 23 24  1  0
 23 25  1  0
 25 26  2  0
 25 27  1  0
 27 28  1  0
 17  6  1  0
 17 11  1  0
 19  2  1  0
 23  2  1  0
M  END
>  <target>  (63) 
-3.68

$$$$

     RDKit          3D

  8  8  0  0  0  0  0  0  0  0999 V2000
   -2.5467   -0.3782    0.0582 N   0  0  0  0  0  0  0  0  0  0  0  0
   -1.1699   -0.1278    0.0844 C   0  0  0  0  0  0  0  0  0  0  0  0
   -0.6744    1.1230   -0.2945 C   0  0  0  0  0  0  0  0  0  0  0  0
    0.7017    1.3466   -0.3842 C   0  0  0  0  0  0  0  0  0  0  0  0
    1.5844    0.3037   -0.1378 C   0  0  0  0  0  0  0  0  0  0  0  0
    2.9190    0.5615   -0.2384 O   0  0  0  0  0  0  0  0  0  0  0  0
    1.1119   -0.9636    0.1826 C   0  0  0  0  0  0  0  0  0  0  0  0
   -0.2667   -1.1790    0.2718 C   0  0  0  0  0  0  0  0  0  0  0  0
  1  2  1  0
  2  3  2  0
  3  4  1  0
  4  5  2  0
  5  6  1  0
  5  7  1  0
  7  8  2  0
  8  2  1  0
M  END
>  <target>  (64) 
-0.8

$$$$

     RDKit          3D

 19 20  0  0  0  0  0  0  0  0999 V2000
    1.3090    2.1819   -1.2506 O   0  0  0  0  0  0  0  0  0  0  0  0
    1.0409    1.4322   -0.3155 C   0  0  0  0  0  0  0  0  0  0  0  0
    2.0239    1.1621    0.8051 C   0  0  0  0  0  0  0  0  0  0  0  0
    3.1531    0.3713    0.3511 N   0  0  0  0  0  0  0  0  0  0  0  0
    4.3478    0.9123   -0.0685 C   0  0  0  0  0  0  0  0  0  0  0  0
    5.1612   -0.1599   -0.3497 C   0  0  0  0  0  0  0  0  0  0  0  0
    4.5089   -1.3398   -0.1099 N   0  0  0  0  0  0  0  0  0  0  0  0
    3.3035   -0.9916    0.3006 C   0  0  0  0  0  0  0  0  0  0  0  0
    2.2916   -1.9562    0.6487 N   0  0  0  0  0  0  0  0  0  0  0  0
    2.6440   -3.1334    0.7868 O   0  0  0  0  0  0  0  0  0  0  0  0
    1.1314   -1.5395    0.7897 O   0  0  0  0  0  0  0  0  0  0  0  0
   -0.1632    0.7767   -0.1985 N   0  0  0  0  0  0  0  0  0  0  0  0
   -1.1398    0.8497   -1.2616 C   0  0  0  0  0  0  0  0  0  0  0  0
   -2.4337    0.2123   -0.8359 C   0  0  0  0  0  0  0  0  0  0  0  0
   -3.4313    0.9760   -0.2139 C   0  0  0  0  0  0  0  0  0  0  0  0
   -4.6203    0.3786    0.2073 C   0  0  0  0  0  0  0  0  0  0  0  0
   -4.8197   -0.9879    0.0194 C   0  0  0  0  0  0  0  0  0  0  0  0
   -3.8298   -1.7592   -0.5867 C   0  0  0  0  0  0  0  0  0  0  0  0
   -2.6404   -1.1638   -1.0095 C   0  0  0  0  0  0  0  0  0  0  0  0
  1  2  2  0
  2  3  1  0
  3  4  1  0
  4  5  1  0
  5  6  2  0
  6  7  1  0
  7  8  2  0
  8  9  1  0
  9 10  1  0
  9 11  2  0
  2 12  1  0
 12 13  1  0
 13 14  1  0
 14 15  2  0
 15 16  1  0
 16 17  2  0
 17 18  1  0
 18 19  2  0
  8  4  1  0
 19 14  1  0
M  CHG  2   9   1  10  -1
M  END
>  <target>  (65) 
-2.81

$$$$

     RDKit          3D

 26 29  0  0  0  0  0  0  0  0999 V2000
   -2.1232   -1.8464   -2.4002 O   0  0  0  0  0  0  0  0  0  0  0  0
   -2.6417   -1.0440   -1.3946 C   0  0  0  0  0  0  0  0  0  0  0  0
   -1.8450   -0.3666   -0.5511 C   0  0  0  0  0  0  0  0  0  0  0  0
   -0.3253   -0.4301   -0.6373 C   0  0  0  0  0  0  0  0  0  0  0  0
    0.3160   -1.0575    0.6141 C   0  0  0  0  0  0  0  0  0  0  0  0
    1.8363   -1.1557    0.4749 C   0  0  0  0  0  0  0  0  0  0  0  0
    2.4618    0.2121    0.1532 C   0  0  0  0  0  0  0  0  0  0  0  0
    1.8293    0.8238   -1.1083 C   0  0  0  0  0  0  0  0  0  0  0  0
    0.3089    0.9313   -0.9766 C   0  0  0  0  0  0  0  0  0  0  0  0
    3.9750    0.1261    0.0389 C   0  0  0  0  0  0  0  0  0  0  0  0
    4.7820    0.8455    0.9348 C   0  0  0  0  0  0  0  0  0  0  0  0
    6.1751    0.7822    0.8493 C   0  0  0  0  0  0  0  0  0  0  0  0
    6.7732   -0.0017   -0.1334 C   0  0  0  0  0  0  0  0  0  0  0  0
    8.4888   -0.0804   -0.2394 Cl  0  0  0  0  0  0  0  0  0  0  0  0
    5.9905   -0.7224   -1.0310 C   0  0  0  0  0  0  0  0  0  0  0  0
    4.5974   -0.6586   -0.9450 C   0  0  0  0  0  0  0  0  0  0  0  0
   -2.4651    0.4815    0.5121 C   0  0  0  0  0  0  0  0  0  0  0  0
   -1.7868    1.1207    1.3082 O   0  0  0  0  0  0  0  0  0  0  0  0
   -3.9381    0.5497    0.6039 C   0  0  0  0  0  0  0  0  0  0  0  0
   -4.5349    1.3408    1.5957 C   0  0  0  0  0  0  0  0  0  0  0  0
   -5.9259    1.4138    1.6932 C   0  0  0  0  0  0  0  0  0  0  0  0
   -6.7263    0.6991    0.8031 C   0  0  0  0  0  0  0  0  0  0  0  0
   -6.1368   -0.0895   -0.1854 C   0  0  0  0  0  0  0  0  0  0  0  0
   -4.7409   -0.1611   -0.2812 C   0  0  0  0  0  0  0  0  0  0  0  0
   -4.1252   -0.9907   -1.3213 C   0  0  0  0  0  0  0  0  0  0  0  0
   -4.7850   -1.6387   -2.1285 O   0  0  0  0  0  0  0  0  0  0  0  0
  1  2  1  0
  2  3  2  0
  3  4  1  0
  4  5  1  0
  5  6  1  0
  6  7  1  0
  7  8  1  0
  8  9  1  0
  7 10  1  0
 10 11  2  0
 11 12  1  0
 12 13  2  0
 13 14  1  0
 13 15  1  0
 15 16  2  0
  3 17  1  0
 17 18  2  0
 17 19  1  0
 19 20  2  0
 20 21  1  0
 21 22  2  0
 22 23  1  0
 23 24  2  0
 24 25  1  0
 25 26  2  0
  9  4  1  0
 16 10  1  0
 24 19  1  0
 25  2  1  0
M  END
>  <target>  (66) 
-5.931

$$$$

     RDKit          3D

 15 15  0  0  0  0  0  0  0  0999 V2000
    4.3797   -1.6095   -0.4065 C   0  0  0  0  0  0  0  0  0  0  0  0
    2.9940   -0.9894   -0.4940 C   0  0  0  0  0  0  0  0  0  0  0  0
    2.8905    0.0937    0.4672 N   0  0  0  0  0  0  0  0  0  0  0  0
    1.6870    0.7887    0.4372 C   0  0  0  0  0  0  0  0  0  0  0  0
    1.7648    2.0721    0.7213 N   0  0  0  0  0  0  0  0  0  0  0  0
    0.5903    2.6788    0.6911 C   0  0  0  0  0  0  0  0  0  0  0  0
    0.6057    4.3515    1.0481 Cl  0  0  0  0  0  0  0  0  0  0  0  0
   -0.5943    2.1616    0.4087 N   0  0  0  0  0  0  0  0  0  0  0  0
   -0.5717    0.8675    0.1352 C   0  0  0  0  0  0  0  0  0  0  0  0
    0.5562    0.1584    0.1376 N   0  0  0  0  0  0  0  0  0  0  0  0
   -1.7561    0.2318   -0.1816 N   0  0  0  0  0  0  0  0  0  0  0  0
   -1.7756   -1.2166   -0.3376 C   0  0  0  0  0  0  0  0  0  0  0  0
   -1.4467   -1.6054   -1.7715 C   0  0  0  0  0  0  0  0  0  0  0  0
   -3.0166    0.9565   -0.0912 C   0  0  0  0  0  0  0  0  0  0  0  0
   -3.5401    0.9837    1.3378 C   0  0  0  0  0  0  0  0  0  0  0  0
  1  2  1  0
  2  3  1  0
  3  4  1  0
  4  5  2  0
  5  6  1  0
  6  7  1  0
  6  8  2  0
  8  9  1  0
  9 10  2  0
  9 11  1  0
 11 12  1  0
 12 13  1  0
 11 14  1  0
 14 15  1  0
 10  4  1  0
M  END
>  <target>  (67) 
-4.06

$$$$

     RDKit          3D

  9  9  0  0  0  0  0  0  0  0999 V2000
   -2.4664    0.4374   -0.5095 N   0  0  0  0  0  0  0  0  0  0  0  0
   -1.6968   -0.5911   -0.0360 C   0  0  0  0  0  0  0  0  0  0  0  0
   -2.1711   -1.6885    0.2258 O   0  0  0  0  0  0  0  0  0  0  0  0
   -0.2514   -0.2817    0.1369 C   0  0  0  0  0  0  0  0  0  0  0  0
    0.6133   -1.2563    0.6112 C   0  0  0  0  0  0  0  0  0  0  0  0
    1.9399   -1.0220    0.7856 N   0  0  0  0  0  0  0  0  0  0  0  0
    2.3538    0.2260    0.4644 C   0  0  0  0  0  0  0  0  0  0  0  0
    1.4876    1.2005   -0.0101 C   0  0  0  0  0  0  0  0  0  0  0  0
    0.1643    0.9786   -0.1879 N   0  0  0  0  0  0  0  0  0  0  0  0
  1  2  1  0
  2  3  2  0
  2  4  1  0
  4  5  2  0
  5  6  1  0
  6  7  2  0
  7  8  1  0
  8  9  2  0
  9  4  1  0
M  END
>  <target>  (68) 
-0.667

$$$$

     RDKit          3D

 12 11  0  0  0  0  0  0  0  0999 V2000
   -1.5534    1.7188   -1.7009 C   0  0  0  0  0  0  0  0  0  0  0  0
   -1.7735    0.7018   -0.5814 C   0  0  0  0  0  0  0  0  0  0  0  0
   -0.6894   -0.3847   -0.4136 C   0  0  0  0  0  0  0  0  0  0  0  0
   -0.5101   -1.3765   -2.1327 Br  0  0  0  0  0  0  0  0  0  0  0  0
   -1.0959   -1.4426    0.6406 C   0  0  0  0  0  0  0  0  0  0  0  0
   -1.2854   -0.8909    2.0496 C   0  0  0  0  0  0  0  0  0  0  0  0
    0.7037    0.1944   -0.0896 C   0  0  0  0  0  0  0  0  0  0  0  0
    0.8552    1.3499    0.3116 O   0  0  0  0  0  0  0  0  0  0  0  0
    1.7455   -0.7202   -0.1486 N   0  0  0  0  0  0  0  0  0  0  0  0
    3.0765   -0.4228   -0.1291 C   0  0  0  0  0  0  0  0  0  0  0  0
    3.4456    0.6768    0.5629 N   0  0  0  0  0  0  0  0  0  0  0  0
    3.8953   -1.1261   -0.7093 O   0  0  0  0  0  0  0  0  0  0  0  0
  1  2  1  0
  2  3  1  0
  3  4  1  0
  3  5  1  0
  5  6  1  0
  3  7  1  0
  7  8  2  0
  7  9  1  0
  9 10  1  0
 10 11  1  0
 10 12  2  0
M  END
>  <target>  (69) 
-2.68

$$$$

     RDKit          3D

 14 15  0  0  0  0  0  0  0  0999 V2000
   -0.8182   -2.2938   -1.4770 Cl  0  0  0  0  0  0  0  0  0  0  0  0
   -1.5250   -0.9406   -0.6611 C   0  0  0  0  0  0  0  0  0  0  0  0
   -2.9208   -0.8434   -0.6591 C   0  0  0  0  0  0  0  0  0  0  0  0
   -3.5491    0.2201   -0.0124 C   0  0  0  0  0  0  0  0  0  0  0  0
   -2.7844    1.1874    0.6338 C   0  0  0  0  0  0  0  0  0  0  0  0
   -1.3907    1.0923    0.6332 C   0  0  0  0  0  0  0  0  0  0  0  0
   -0.7353    0.0289   -0.0150 C   0  0  0  0  0  0  0  0  0  0  0  0
    0.7354   -0.0298    0.0111 C   0  0  0  0  0  0  0  0  0  0  0  0
    1.3767   -0.6811    1.0812 C   0  0  0  0  0  0  0  0  0  0  0  0
    2.7699   -0.7605    1.1463 C   0  0  0  0  0  0  0  0  0  0  0  0
    3.5480   -0.1887    0.1435 C   0  0  0  0  0  0  0  0  0  0  0  0
    2.9338    0.4635   -0.9248 C   0  0  0  0  0  0  0  0  0  0  0  0
    1.5385    0.5440   -0.9922 C   0  0  0  0  0  0  0  0  0  0  0  0
    0.8494    1.3773   -2.3439 Cl  0  0  0  0  0  0  0  0  0  0  0  0
  1  2  1  0
  2  3  2  0
  3  4  1  0
  4  5  2  0
  5  6  1  0
  6  7  2  0
  7  8  1  0
  8  9  2  0
  9 10  1  0
 10 11  2  0
 11 12  1  0
 12 13  2  0
 13 14  1  0
  7  2  1  0
 13  8  1  0
M  END
>  <target>  (70) 
-5.27

$$$$

     RDKit          3D

 17 18  0  0  0  0  0  0  0  0999 V2000
   -5.5162   -0.5162    0.0361 O   0  0  0  0  0  0  0  0  0  0  0  0
   -4.3424   -0.1841   -0.0216 C   0  0  0  0  0  0  0  0  0  0  0  0
   -3.1553   -1.0800    0.2633 C   0  0  0  0  0  0  0  0  0  0  0  0
   -2.0698   -0.1517    0.0471 N   0  0  0  0  0  0  0  0  0  0  0  0
   -0.7923   -0.5247    0.3656 N   0  0  0  0  0  0  0  0  0  0  0  0
    0.1897    0.2351   -0.0029 C   0  0  0  0  0  0  0  0  0  0  0  0
    1.5379   -0.1124    0.3546 C   0  0  0  0  0  0  0  0  0  0  0  0
    2.0678   -1.1565    1.0944 C   0  0  0  0  0  0  0  0  0  0  0  0
    3.4748   -0.9774    1.1138 C   0  0  0  0  0  0  0  0  0  0  0  0
    3.7039    0.1635    0.3829 C   0  0  0  0  0  0  0  0  0  0  0  0
    2.5469    0.7012   -0.0858 O   0  0  0  0  0  0  0  0  0  0  0  0
    4.9082    0.8524    0.0449 N   0  0  0  0  0  0  0  0  0  0  0  0
    4.8159    1.8735   -0.6477 O   0  0  0  0  0  0  0  0  0  0  0  0
    5.9601    0.3610    0.4775 O   0  0  0  0  0  0  0  0  0  0  0  0
   -2.5479    1.1392   -0.2287 C   0  0  0  0  0  0  0  0  0  0  0  0
   -1.9181    2.1790   -0.3352 O   0  0  0  0  0  0  0  0  0  0  0  0
   -3.9009    1.0606   -0.3356 N   0  0  0  0  0  0  0  0  0  0  0  0
  1  2  2  0
  2  3  1  0
  3  4  1  0
  4  5  1  0
  5  6  2  3
  6  7  1  0
  7  8  2  0
  8  9  1  0
  9 10  2  0
 10 11  1  0
 10 12  1  0
 12 13  1  0
 12 14  2  0
  4 15  1  0
 15 16  2  0
 15 17  1  0
 11  7  1  0
 17  2  1  0
M  CHG  2  12   1  13  -1
M  END
>  <target>  (71) 
-3.38

$$$$

     RDKit          3D

 18 19  0  0  0  0  0  0  0  0999 V2000
    5.2789    1.9195   -1.2044 Cl  0  0  0  0  0  0  0  0  0  0  0  0
    3.9176    1.0859   -0.5620 C   0  0  0  0  0  0  0  0  0  0  0  0
    3.1565    0.2644   -1.3944 C   0  0  0  0  0  0  0  0  0  0  0  0
    2.0505   -0.4134   -0.8779 C   0  0  0  0  0  0  0  0  0  0  0  0
    1.7048   -0.2533    0.4687 C   0  0  0  0  0  0  0  0  0  0  0  0
    0.6461   -0.9547    0.9987 O   0  0  0  0  0  0  0  0  0  0  0  0
   -0.6081   -0.6865    0.4953 C   0  0  0  0  0  0  0  0  0  0  0  0
   -1.0407    0.5926    0.1297 C   0  0  0  0  0  0  0  0  0  0  0  0
   -2.3465    0.7829   -0.3329 C   0  0  0  0  0  0  0  0  0  0  0  0
   -3.2198   -0.3111   -0.4125 C   0  0  0  0  0  0  0  0  0  0  0  0
   -2.7956   -1.5904   -0.0293 C   0  0  0  0  0  0  0  0  0  0  0  0
   -1.4884   -1.7706    0.4303 C   0  0  0  0  0  0  0  0  0  0  0  0
   -4.5933   -0.1124   -0.8935 N   0  0  0  0  0  0  0  0  0  0  0  0
   -4.9077    1.0212   -1.2830 O   0  0  0  0  0  0  0  0  0  0  0  0
   -5.3546   -1.0902   -0.8851 O   0  0  0  0  0  0  0  0  0  0  0  0
    2.4864    0.5552    1.3024 C   0  0  0  0  0  0  0  0  0  0  0  0
    2.1046    0.7521    2.9736 Cl  0  0  0  0  0  0  0  0  0  0  0  0
    3.5906    1.2337    0.7850 C   0  0  0  0  0  0  0  0  0  0  0  0
  1  2  1  0
  2  3  2  0
  3  4  1  0
  4  5  2  0
  5  6  1  0
  6  7  1  0
  7  8  2  0
  8  9  1  0
  9 10  2  0
 10 11  1  0
 11 12  2  0
 10 13  1  0
 13 14  1  0
 13 15  2  0
  5 16  1  0
 16 17  1  0
 16 18  2  0
 12  7  1  0
 18  2  1  0
M  CHG  2  13   1  14  -1
M  END
>  <target>  (72) 
-5.46

$$$$

     RDKit          3D

 11 12  0  0  0  0  0  0  0  0999 V2000
   -1.6179   -0.5156    1.1722 C   0  0  0  0  0  0  0  0  0  0  0  0
   -0.6977   -0.3591   -0.0540 C   0  0  0  0  0  0  0  0  0  0  0  0
   -1.0668   -1.4967   -1.0280 C   0  0  0  0  0  0  0  0  0  0  0  0
   -0.7305    1.0608   -0.6854 C   0  0  0  0  0  0  0  0  0  0  0  0
   -0.1521    1.9559    0.4402 C   0  0  0  0  0  0  0  0  0  0  0  0
    0.9297    1.0599    1.0838 C   0  0  0  0  0  0  0  0  0  0  0  0
    0.8174   -0.2518    0.2730 C   0  0  0  0  0  0  0  0  0  0  0  0
    1.4916   -1.4497    0.8970 C   0  0  0  0  0  0  0  0  0  0  0  0
    1.3585    0.1409   -1.1056 C   0  0  0  0  0  0  0  0  0  0  0  0
    2.4486   -0.1636   -1.5640 O   0  0  0  0  0  0  0  0  0  0  0  0
    0.3296    1.0006   -1.8128 C   0  0  0  0  0  0  0  0  0  0  0  0
  1  2  1  0
  2  3  1  0
  2  4  1  0
  4  5  1  0
  5  6  1  0
  6  7  1  0
  7  8  1  0
  7  9  1  0
  9 10  2  0
  9 11  1  0
  7  2  1  0
 11  4  1  0
M  END
>  <target>  (73) 
-1.96

$$$$

     RDKit          3D

 18 19  0  0  0  0  0  0  0  0999 V2000
    0.5181    1.0495   -2.4284 O   0  0  0  0  0  0  0  0  0  0  0  0
    0.2941    1.2462   -1.2339 C   0  0  0  0  0  0  0  0  0  0  0  0
   -0.1259    2.4829   -0.8260 N   0  0  0  0  0  0  0  0  0  0  0  0
    0.1215    2.9905    0.4079 C   0  0  0  0  0  0  0  0  0  0  0  0
    0.1503    4.2005    0.6071 O   0  0  0  0  0  0  0  0  0  0  0  0
    0.4307    2.1041    1.3882 N   0  0  0  0  0  0  0  0  0  0  0  0
    0.8473    0.8182    1.1690 C   0  0  0  0  0  0  0  0  0  0  0  0
    1.4945    0.2417    2.0435 O   0  0  0  0  0  0  0  0  0  0  0  0
    0.3904    0.1673   -0.1455 C   0  0  0  0  0  0  0  0  0  0  0  0
    1.4065   -0.9321   -0.5659 C   0  0  0  0  0  0  0  0  0  0  0  0
    2.7991   -0.4394   -0.8886 C   0  0  0  0  0  0  0  0  0  0  0  0
    3.8645   -0.6296   -0.1007 C   0  0  0  0  0  0  0  0  0  0  0  0
   -0.9881   -0.5292    0.0430 C   0  0  0  0  0  0  0  0  0  0  0  0
   -1.8691   -0.7037   -1.0429 C   0  0  0  0  0  0  0  0  0  0  0  0
   -3.1003   -1.3446   -0.8805 C   0  0  0  0  0  0  0  0  0  0  0  0
   -3.4718   -1.8410    0.3641 C   0  0  0  0  0  0  0  0  0  0  0  0
   -2.6065   -1.7087    1.4447 C   0  0  0  0  0  0  0  0  0  0  0  0
   -1.3744   -1.0682    1.2855 C   0  0  0  0  0  0  0  0  0  0  0  0
  1  2  2  0
  2  3  1  0
  3  4  1  0
  4  5  2  0
  4  6  1  0
  6  7  1  0
  7  8  2  0
  7  9  1  0
  9 10  1  0
 10 11  1  0
 11 12  2  0
  9 13  1  0
 13 14  2  0
 14 15  1  0
 15 16  2  0
 16 17  1  0
 17 18  2  0
  9  2  1  0
 18 13  1  0
M  END
>  <target>  (74) 
-2.369

$$$$

     RDKit          3D

  9  8  0  0  0  0  0  0  0  0999 V2000
    3.7910   -0.4115   -0.4010 C   0  0  0  0  0  0  0  0  0  0  0  0
    2.3209   -0.1528   -0.6920 C   0  0  0  0  0  0  0  0  0  0  0  0
    1.7379    0.8911    0.2638 C   0  0  0  0  0  0  0  0  0  0  0  0
    0.2671    1.1905   -0.0254 C   0  0  0  0  0  0  0  0  0  0  0  0
   -0.6588    0.0655    0.3783 C   0  0  0  0  0  0  0  0  0  0  0  0
   -0.3672   -0.8661    1.1141 O   0  0  0  0  0  0  0  0  0  0  0  0
   -1.8855    0.2654   -0.1827 O   0  0  0  0  0  0  0  0  0  0  0  0
   -2.8523   -0.7391    0.1472 C   0  0  0  0  0  0  0  0  0  0  0  0
   -4.1534   -0.3909   -0.5490 C   0  0  0  0  0  0  0  0  0  0  0  0
  1  2  1  0
  2  3  1  0
  3  4  1  0
  4  5  1  0
  5  6  2  0
  5  7  1  0
  7  8  1  0
  8  9  1  0
M  END
>  <target>  (75) 
-2.25

$$$$

     RDKit          3D

  9  8  0  0  0  0  0  0  0  0999 V2000
   -2.5125    1.5152   -0.2964 C   0  0  0  0  0  0  0  0  0  0  0  0
   -1.3426    0.6531    0.1853 C   0  0  0  0  0  0  0  0  0  0  0  0
   -1.7667   -0.1539    1.4130 C   0  0  0  0  0  0  0  0  0  0  0  0
   -0.8493   -0.2455   -0.9661 C   0  0  0  0  0  0  0  0  0  0  0  0
    0.3759   -1.0954   -0.6310 C   0  0  0  0  0  0  0  0  0  0  0  0
    1.4479   -0.2374   -0.2223 O   0  0  0  0  0  0  0  0  0  0  0  0
    2.5855   -0.8944    0.1324 C   0  0  0  0  0  0  0  0  0  0  0  0
    2.7405   -2.1072    0.1181 O   0  0  0  0  0  0  0  0  0  0  0  0
    3.6357    0.0894    0.5481 C   0  0  0  0  0  0  0  0  0  0  0  0
  1  2  1  0
  2  3  1  0
  2  4  1  0
  4  5  1  0
  5  6  1  0
  6  7  1  0
  7  8  2  0
  7  9  1  0
M  END
>  <target>  (76) 
-1.92

$$$$

     RDKit          3D

 28 30  0  0  0  0  0  0  0  0999 V2000
   -0.8860   -1.6611   -2.9135 O   0  0  0  0  0  0  0  0  0  0  0  0
   -1.3620   -1.2267   -1.8783 C   0  0  0  0  0  0  0  0  0  0  0  0
   -0.8697   -1.3576   -0.6251 N   0  0  0  0  0  0  0  0  0  0  0  0
    0.3673   -2.0088   -0.2992 C   0  0  0  0  0  0  0  0  0  0  0  0
    1.3898   -1.0132   -0.2913 O   0  0  0  0  0  0  0  0  0  0  0  0
    2.6119   -1.5106    0.0380 C   0  0  0  0  0  0  0  0  0  0  0  0
    2.8420   -2.6829    0.2970 O   0  0  0  0  0  0  0  0  0  0  0  0
    3.6284   -0.3934    0.0310 C   0  0  0  0  0  0  0  0  0  0  0  0
    5.0253   -0.8906    0.3983 C   0  0  0  0  0  0  0  0  0  0  0  0
    6.0430    0.2505    0.3877 C   0  0  0  0  0  0  0  0  0  0  0  0
    7.4406   -0.2475    0.7552 C   0  0  0  0  0  0  0  0  0  0  0  0
    8.4556    0.8844    0.7458 C   0  0  0  0  0  0  0  0  0  0  0  0
   -1.6944   -0.7545    0.2822 C   0  0  0  0  0  0  0  0  0  0  0  0
   -1.5091   -0.7360    1.4952 O   0  0  0  0  0  0  0  0  0  0  0  0
   -2.8962   -0.1094   -0.4787 C   0  0  0  0  0  0  0  0  0  0  0  0
   -2.5298   -0.5142   -1.8241 N   0  0  0  0  0  0  0  0  0  0  0  0
   -2.8527    1.4153   -0.2901 C   0  0  0  0  0  0  0  0  0  0  0  0
   -2.4390    2.2931   -1.3094 C   0  0  0  0  0  0  0  0  0  0  0  0
   -2.4002    3.6737   -1.0963 C   0  0  0  0  0  0  0  0  0  0  0  0
   -2.7692    4.2029    0.1371 C   0  0  0  0  0  0  0  0  0  0  0  0
   -3.1752    3.3536    1.1617 C   0  0  0  0  0  0  0  0  0  0  0  0
   -3.2142    1.9738    0.9519 C   0  0  0  0  0  0  0  0  0  0  0  0
   -4.2689   -0.7192   -0.1598 C   0  0  0  0  0  0  0  0  0  0  0  0
   -4.4493   -1.7491    0.7795 C   0  0  0  0  0  0  0  0  0  0  0  0
   -5.7180   -2.2830    1.0260 C   0  0  0  0  0  0  0  0  0  0  0  0
   -6.8289   -1.8013    0.3395 C   0  0  0  0  0  0  0  0  0  0  0  0
   -6.6759   -0.7828   -0.5952 C   0  0  0  0  0  0  0  0  0  0  0  0
   -5.4103   -0.2480   -0.8435 C   0  0  0  0  0  0  0  0  0  0  0  0
  1  2  2  0
  2  3  1  0
  3  4  1  0
  4  5  1  0
  5  6  1  0
  6  7  2  0
  6  8  1  0
  8  9  1  0
  9 10  1  0
 10 11  1  0
 11 12  1  0
  3 13  1  0
 13 14  2  0
 13 15  1  0
 15 16  1  0
 15 17  1  0
 17 18  2  0
 18 19  1  0
 19 20  2  0
 20 21  1  0
 21 22  2  0
 15 23  1  0
 23 24  2  0
 24 25  1  0
 25 26  2  0
 26 27  1  0
 27 28  2  0
 16  2  1  0
 22 17  1  0
 28 23  1  0
M  END
>  <target>  (77) 
-5.886

$$$$

     RDKit          3D

 15 16  0  0  0  0  0  0  0  0999 V2000
    3.5798    0.9005    2.6862 Cl  0  0  0  0  0  0  0  0  0  0  0  0
    2.7838    0.4006    1.2445 C   0  0  0  0  0  0  0  0  0  0  0  0
    3.5372    0.0237    0.1352 C   0  0  0  0  0  0  0  0  0  0  0  0
    2.8920   -0.3786   -1.0328 C   0  0  0  0  0  0  0  0  0  0  0  0
    1.4961   -0.4023   -1.0860 C   0  0  0  0  0  0  0  0  0  0  0  0
    0.7265   -0.0271    0.0276 C   0  0  0  0  0  0  0  0  0  0  0  0
    1.3897    0.3790    1.1962 C   0  0  0  0  0  0  0  0  0  0  0  0
   -0.7417   -0.0457   -0.0365 C   0  0  0  0  0  0  0  0  0  0  0  0
   -1.4064    0.9874   -0.7245 C   0  0  0  0  0  0  0  0  0  0  0  0
   -2.7992    1.0103   -0.8072 C   0  0  0  0  0  0  0  0  0  0  0  0
   -3.5832    2.2860   -1.6538 Cl  0  0  0  0  0  0  0  0  0  0  0  0
   -3.5589    0.0090   -0.2098 C   0  0  0  0  0  0  0  0  0  0  0  0
   -2.9199   -1.0248    0.4749 C   0  0  0  0  0  0  0  0  0  0  0  0
   -1.5229   -1.0543    0.5615 C   0  0  0  0  0  0  0  0  0  0  0  0
   -0.8064   -2.3793    1.4131 Cl  0  0  0  0  0  0  0  0  0  0  0  0
  1  2  1  0
  2  3  2  0
  3  4  1  0
  4  5  2  0
  5  6  1  0
  6  7  2  0
  6  8  1  0
  8  9  2  0
  9 10  1  0
 10 11  1  0
 10 12  2  0
 12 13  1  0
 13 14  2  0
 14 15  1  0
  7  2  1  0
 14  8  1  0
M  END
>  <target>  (78) 
-6.01

$$$$

     RDKit          3D

  4  3  0  0  0  0  0  0  0  0999 V2000
   -1.2844   -0.2841   -0.3012 C   0  0  0  0  0  0  0  0  0  0  0  0
   -0.0363   -0.1524    0.5566 C   0  0  0  0  0  0  0  0  0  0  0  0
    1.1319    0.3825   -0.2520 C   0  0  0  0  0  0  0  0  0  0  0  0
    2.7052    0.5345    0.8844 Br  0  0  0  0  0  0  0  0  0  0  0  0
  1  2  1  0
  2  3  1  0
  3  4  1  0
M  END
>  <target>  (79) 
-1.73

$$$$

     RDKit          3D

 22 24  0  0  0  0  0  0  0  0999 V2000
    5.2204   -0.5593   -0.0628 C   0  0  0  0  0  0  0  0  0  0  0  0
    4.1070    0.4318   -0.3654 C   0  0  0  0  0  0  0  0  0  0  0  0
    2.7334   -0.2344   -0.2908 C   0  0  0  0  0  0  0  0  0  0  0  0
    1.5885    0.7191   -0.6539 C   0  0  0  0  0  0  0  0  0  0  0  0
    1.2810    1.7539    0.3997 C   0  0  0  0  0  0  0  0  0  0  0  0
    0.4499    1.0439    1.3134 O   0  0  0  0  0  0  0  0  0  0  0  0
   -0.3622    0.1781    0.4914 C   0  0  0  0  0  0  0  0  0  0  0  0
   -0.5211   -1.1744    1.2089 C   0  0  0  0  0  0  0  0  0  0  0  0
   -1.3570   -2.1093    0.4918 N   0  0  0  0  0  0  0  0  0  0  0  0
   -1.0297   -2.8591   -0.5951 C   0  0  0  0  0  0  0  0  0  0  0  0
   -2.0552   -3.6033   -0.9394 N   0  0  0  0  0  0  0  0  0  0  0  0
   -2.9976   -3.2765   -0.0061 C   0  0  0  0  0  0  0  0  0  0  0  0
   -2.6138   -2.3712    0.8977 N   0  0  0  0  0  0  0  0  0  0  0  0
    0.3775   -0.0469   -0.7388 O   0  0  0  0  0  0  0  0  0  0  0  0
   -1.7005    0.8638    0.1883 C   0  0  0  0  0  0  0  0  0  0  0  0
   -2.1704    0.9125   -1.1438 C   0  0  0  0  0  0  0  0  0  0  0  0
   -3.3923    1.5078   -1.4676 C   0  0  0  0  0  0  0  0  0  0  0  0
   -4.1741    2.0644   -0.4642 C   0  0  0  0  0  0  0  0  0  0  0  0
   -5.6775    2.8003   -0.8596 Cl  0  0  0  0  0  0  0  0  0  0  0  0
   -3.7467    2.0277    0.8577 C   0  0  0  0  0  0  0  0  0  0  0  0
   -2.5222    1.4299    1.1848 C   0  0  0  0  0  0  0  0  0  0  0  0
   -2.1026    1.4348    2.8631 Cl  0  0  0  0  0  0  0  0  0  0  0  0
  1  2  1  0
  2  3  1  0
  3  4  1  0
  4  5  1  0
  5  6  1  0
  6  7  1  0
  7  8  1  0
  8  9  1  0
  9 10  1  0
 10 11  2  0
 11 12  1  0
 12 13  2  0
  7 14  1  0
  7 15  1  0
 15 16  2  0
 16 17  1  0
 17 18  2  0
 18 19  1  0
 18 20  1  0
 20 21  2  0
 21 22  1  0
 14  4  1  0
 13  9  1  0
 21 15  1  0
M  END
>  <target>  (80) 
-3.4930000000000003

$$$$

     RDKit          3D

 14 13  0  0  0  0  0  0  0  0999 V2000
   -1.6536   -1.2434    1.8282 C   0  0  0  0  0  0  0  0  0  0  0  0
   -1.4387   -1.2450    0.4295 O   0  0  0  0  0  0  0  0  0  0  0  0
   -2.1714   -0.1151   -0.4897 P   0  0  0  0  0  0  0  0  0  0  0  0
   -4.1071   -0.0915   -0.2411 S   0  0  0  0  0  0  0  0  0  0  0  0
   -1.4398    1.2005    0.1225 O   0  0  0  0  0  0  0  0  0  0  0  0
   -1.7438    2.4675   -0.4313 C   0  0  0  0  0  0  0  0  0  0  0  0
   -1.4211   -0.4449   -2.4314 S   0  0  0  0  0  0  0  0  0  0  0  0
    0.2879   -0.9860   -2.1265 C   0  0  0  0  0  0  0  0  0  0  0  0
    1.0757    0.0850   -1.3767 C   0  0  0  0  0  0  0  0  0  0  0  0
    0.9375    1.2862   -1.6288 O   0  0  0  0  0  0  0  0  0  0  0  0
    1.9815   -0.3508   -0.4100 N   0  0  0  0  0  0  0  0  0  0  0  0
    2.5128    0.6599    0.4835 C   0  0  0  0  0  0  0  0  0  0  0  0
    2.7126   -1.5209   -0.5466 C   0  0  0  0  0  0  0  0  0  0  0  0
    2.5554   -2.3956   -1.3876 O   0  0  0  0  0  0  0  0  0  0  0  0
  1  2  1  0
  2  3  1  0
  3  4  2  0
  3  5  1  0
  5  6  1  0
  3  7  1  0
  7  8  1  0
  8  9  1  0
  9 10  2  0
  9 11  1  0
 11 12  1  0
 11 13  1  0
 13 14  2  0
M  END
>  <target>  (81) 
-1.995

$$$$

     RDKit          3D

 11 12  0  0  0  0  0  0  0  0999 V2000
   -2.1672   -1.1877    0.1774 C   0  0  0  0  0  0  0  0  0  0  0  0
   -1.2762   -0.0111   -0.1031 C   0  0  0  0  0  0  0  0  0  0  0  0
   -1.8932    1.1280   -0.4980 N   0  0  0  0  0  0  0  0  0  0  0  0
   -1.0932    2.1677   -0.7447 C   0  0  0  0  0  0  0  0  0  0  0  0
    0.2360    2.1725   -0.6354 N   0  0  0  0  0  0  0  0  0  0  0  0
    0.8164    1.0402   -0.2456 C   0  0  0  0  0  0  0  0  0  0  0  0
    2.1499    1.0425   -0.1350 N   0  0  0  0  0  0  0  0  0  0  0  0
    2.7554   -0.0996    0.2598 C   0  0  0  0  0  0  0  0  0  0  0  0
    2.0498   -1.2456    0.5465 C   0  0  0  0  0  0  0  0  0  0  0  0
    0.7082   -1.2887    0.4476 N   0  0  0  0  0  0  0  0  0  0  0  0
    0.0978   -0.1346    0.0487 C   0  0  0  0  0  0  0  0  0  0  0  0
  1  2  1  0
  2  3  2  0
  3  4  1  0
  4  5  2  0
  5  6  1  0
  6  7  2  0
  7  8  1  0
  8  9  2  0
  9 10  1  0
 10 11  2  0
 11  2  1  0
 11  6  1  0
M  END
>  <target>  (82) 
-0.466

$$$$

     RDKit          3D

  4  3  0  0  0  0  0  0  0  0999 V2000
   -1.1224    0.0034   -0.3268 N   0  0  0  0  0  0  0  0  0  0  0  0
    0.0207    0.3037    0.3228 C   0  0  0  0  0  0  0  0  0  0  0  0
    0.0978    1.4333    1.5234 S   0  0  0  0  0  0  0  0  0  0  0  0
    1.0955   -0.3974   -0.0920 N   0  0  0  0  0  0  0  0  0  0  0  0
  1  2  1  0
  2  3  2  0
  2  4  1  0
M  END
>  <target>  (83) 
0.32

$$$$

     RDKit          3D

  8  8  0  0  0  0  0  0  0  0999 V2000
    2.9021   -0.1192    0.1405 C   0  0  0  0  0  0  0  0  0  0  0  0
    1.4077   -0.0406    0.0431 C   0  0  0  0  0  0  0  0  0  0  0  0
    0.7058    0.9728    0.7047 C   0  0  0  0  0  0  0  0  0  0  0  0
   -0.6888    1.0280    0.6403 C   0  0  0  0  0  0  0  0  0  0  0  0
   -1.4045    0.0707   -0.0870 C   0  0  0  0  0  0  0  0  0  0  0  0
   -2.9030    0.1105   -0.1279 C   0  0  0  0  0  0  0  0  0  0  0  0
   -0.7044   -0.9594   -0.7243 C   0  0  0  0  0  0  0  0  0  0  0  0
    0.6902   -1.0146   -0.6598 C   0  0  0  0  0  0  0  0  0  0  0  0
  1  2  1  0
  2  3  2  0
  3  4  1  0
  4  5  2  0
  5  6  1  0
  5  7  1  0
  7  8  2  0
  8  2  1  0
M  END
>  <target>  (84) 
-2.77

$$$$

     RDKit          3D

 10 10  0  0  0  0  0  0  0  0999 V2000
   -1.8384   -2.0220   -0.2918 C   0  0  0  0  0  0  0  0  0  0  0  0
   -0.9417   -1.3669    0.7487 C   0  0  0  0  0  0  0  0  0  0  0  0
   -0.6373    0.0739    0.4054 C   0  0  0  0  0  0  0  0  0  0  0  0
   -1.5313    1.0630    0.8565 C   0  0  0  0  0  0  0  0  0  0  0  0
   -1.3214    2.4107    0.5678 C   0  0  0  0  0  0  0  0  0  0  0  0
   -0.2145    2.7931   -0.1796 C   0  0  0  0  0  0  0  0  0  0  0  0
    0.6784    1.8269   -0.6409 C   0  0  0  0  0  0  0  0  0  0  0  0
    0.4794    0.4610   -0.3655 C   0  0  0  0  0  0  0  0  0  0  0  0
    1.4998   -0.5241   -0.8897 C   0  0  0  0  0  0  0  0  0  0  0  0
    2.6494   -0.7257    0.0869 C   0  0  0  0  0  0  0  0  0  0  0  0
  1  2  1  0
  2  3  1  0
  3  4  2  0
  4  5  1  0
  5  6  2  0
  6  7  1  0
  7  8  2  0
  8  9  1  0
  9 10  1  0
  8  3  1  0
M  END
>  <target>  (85) 
-3.28

$$$$

     RDKit          3D

  8  7  0  0  0  0  0  0  0  0999 V2000
   -1.5019   -0.8194   -1.4331 Cl  0  0  0  0  0  0  0  0  0  0  0  0
   -0.7824    0.0060    0.0128 C   0  0  0  0  0  0  0  0  0  0  0  0
   -1.4546   -0.8354    1.4720 Cl  0  0  0  0  0  0  0  0  0  0  0  0
   -1.4587    1.6888    0.0330 Cl  0  0  0  0  0  0  0  0  0  0  0  0
    0.7824   -0.0060   -0.0128 C   0  0  0  0  0  0  0  0  0  0  0  0
    1.5019    0.8194    1.4331 Cl  0  0  0  0  0  0  0  0  0  0  0  0
    1.4546    0.8354   -1.4720 Cl  0  0  0  0  0  0  0  0  0  0  0  0
    1.4587   -1.6888   -0.0330 Cl  0  0  0  0  0  0  0  0  0  0  0  0
  1  2  1  0
  2  3  1  0
  2  4  1  0
  2  5  1  0
  5  6  1  0
  5  7  1  0
  5  8  1  0
M  END
>  <target>  (86) 
-3.67

$$$$

     RDKit          3D

 33 35  0  0  0  0  0  0  0  0999 V2000
    1.0077   -4.5866   -1.8822 C   0  0  0  0  0  0  0  0  0  0  0  0
    1.5628   -3.1633   -1.7232 C   0  0  0  0  0  0  0  0  0  0  0  0
    3.0946   -3.2280   -1.7927 C   0  0  0  0  0  0  0  0  0  0  0  0
    1.0735   -2.5182   -0.3976 C   0  0  0  0  0  0  0  0  0  0  0  0
   -0.4529   -2.4112   -0.3503 C   0  0  0  0  0  0  0  0  0  0  0  0
   -1.1705   -2.1416   -1.3047 O   0  0  0  0  0  0  0  0  0  0  0  0
   -0.8877   -2.5473    0.9330 O   0  0  0  0  0  0  0  0  0  0  0  0
   -2.1613   -1.9317    1.2072 C   0  0  0  0  0  0  0  0  0  0  0  0
   -2.9279   -2.7709    2.1524 C   0  0  0  0  0  0  0  0  0  0  0  0
   -3.5249   -3.4353    2.8963 N   0  0  0  0  0  0  0  0  0  0  0  0
   -1.8322   -0.5433    1.7411 C   0  0  0  0  0  0  0  0  0  0  0  0
   -1.4640   -0.3195    3.0783 C   0  0  0  0  0  0  0  0  0  0  0  0
   -1.0399    0.9423    3.4978 C   0  0  0  0  0  0  0  0  0  0  0  0
   -0.9533    1.9920    2.5838 C   0  0  0  0  0  0  0  0  0  0  0  0
   -1.3278    1.7960    1.2555 C   0  0  0  0  0  0  0  0  0  0  0  0
   -1.1672    2.8800    0.4173 O   0  0  0  0  0  0  0  0  0  0  0  0
   -1.9196    2.9053   -0.7310 C   0  0  0  0  0  0  0  0  0  0  0  0
   -1.2642    2.7992   -1.9570 C   0  0  0  0  0  0  0  0  0  0  0  0
   -2.0040    2.8341   -3.1385 C   0  0  0  0  0  0  0  0  0  0  0  0
   -3.3905    2.9908   -3.0897 C   0  0  0  0  0  0  0  0  0  0  0  0
   -4.0391    3.1185   -1.8601 C   0  0  0  0  0  0  0  0  0  0  0  0
   -3.3029    3.0859   -0.6764 C   0  0  0  0  0  0  0  0  0  0  0  0
   -1.7588    0.5326    0.8366 C   0  0  0  0  0  0  0  0  0  0  0  0
    1.6363   -1.1269   -0.1219 C   0  0  0  0  0  0  0  0  0  0  0  0
    2.2070   -0.8375    1.1259 C   0  0  0  0  0  0  0  0  0  0  0  0
    2.6293    0.4599    1.4401 C   0  0  0  0  0  0  0  0  0  0  0  0
    2.4837    1.4903    0.5142 C   0  0  0  0  0  0  0  0  0  0  0  0
    2.8232    2.7999    0.6966 O   0  0  0  0  0  0  0  0  0  0  0  0
    3.1430    3.2322    2.0134 C   0  0  0  0  0  0  0  0  0  0  0  0
    4.2877    2.6359    2.4263 F   0  0  0  0  0  0  0  0  0  0  0  0
    2.1542    2.9004    2.8766 F   0  0  0  0  0  0  0  0  0  0  0  0
    1.9382    1.2025   -0.7380 C   0  0  0  0  0  0  0  0  0  0  0  0
    1.5108   -0.0886   -1.0550 C   0  0  0  0  0  0  0  0  0  0  0  0
  1  2  1  0
  2  3  1  0
  2  4  1  0
  4  5  1  0
  5  6  2  0
  5  7  1  0
  7  8  1  0
  8  9  1  0
  9 10  3  0
  8 11  1  0
 11 12  2  0
 12 13  1  0
 13 14  2  0
 14 15  1  0
 15 16  1  0
 16 17  1  0
 17 18  2  0
 18 19  1  0
 19 20  2  0
 20 21  1  0
 21 22  2  0
 15 23  2  0
  4 24  1  0
 24 25  2  0
 25 26  1  0
 26 27  2  0
 27 28  1  0
 28 29  1  0
 29 30  1  0
 29 31  1  0
 27 32  1  0
 32 33  2  0
 23 11  1  0
 22 17  1  0
 33 24  1  0
M  END
>  <target>  (87) 
-6.876

$$$$

     RDKit          3D

  6  5  0  0  0  0  0  0  0  0999 V2000
   -1.7495    0.0047   -0.1175 C   0  0  0  0  0  0  0  0  0  0  0  0
   -0.2797   -0.3396    0.0605 C   0  0  0  0  0  0  0  0  0  0  0  0
    0.5793    0.3648   -0.9794 C   0  0  0  0  0  0  0  0  0  0  0  0
    2.0099   -0.0160   -0.7484 N   0  0  0  0  0  0  0  0  0  0  0  0
    2.6654    0.6978    0.0208 O   0  0  0  0  0  0  0  0  0  0  0  0
    2.4277   -1.0198   -1.3389 O   0  0  0  0  0  0  0  0  0  0  0  0
  1  2  1  0
  2  3  1  0
  3  4  1  0
  4  5  1  0
  4  6  2  0
M  CHG  2   4   1   5  -1
M  END
>  <target>  (88) 
-0.8

$$$$

     RDKit          3D

 11 11  0  0  0  0  0  0  0  0999 V2000
   -3.0996    0.8076    0.6695 C   0  0  0  0  0  0  0  0  0  0  0  0
   -2.1398    0.4029   -0.4550 C   0  0  0  0  0  0  0  0  0  0  0  0
   -2.5474   -0.9523   -1.0396 C   0  0  0  0  0  0  0  0  0  0  0  0
   -0.6568    0.5017   -0.0161 C   0  0  0  0  0  0  0  0  0  0  0  0
    0.3057    0.3486   -1.2052 C   0  0  0  0  0  0  0  0  0  0  0  0
    1.7642    0.5370   -0.7832 C   0  0  0  0  0  0  0  0  0  0  0  0
    2.1588   -0.4743    0.3012 C   0  0  0  0  0  0  0  0  0  0  0  0
    3.6141   -0.2767    0.7196 C   0  0  0  0  0  0  0  0  0  0  0  0
    1.2315   -0.3639    1.5118 C   0  0  0  0  0  0  0  0  0  0  0  0
   -0.2191   -0.4682    1.0850 C   0  0  0  0  0  0  0  0  0  0  0  0
   -0.9850   -1.2358    1.6632 O   0  0  0  0  0  0  0  0  0  0  0  0
  1  2  1  0
  2  3  1  0
  2  4  1  0
  4  5  1  0
  5  6  1  0
  6  7  1  0
  7  8  1  0
  7  9  1  0
  9 10  1  0
 10 11  2  0
 10  4  1  0
M  END
>  <target>  (89) 
-2.35

$$$$

     RDKit          3D

 19 21  0  0  0  0  0  0  0  0999 V2000
   -0.2030    2.8788   -1.3043 C   0  0  0  0  0  0  0  0  0  0  0  0
   -0.8909    2.0100   -0.2515 C   0  0  0  0  0  0  0  0  0  0  0  0
   -0.3135    0.6507   -0.2038 N   0  0  0  0  0  0  0  0  0  0  0  0
   -1.1977   -0.4258    0.0421 C   0  0  0  0  0  0  0  0  0  0  0  0
   -2.4194   -0.2347    0.7222 C   0  0  0  0  0  0  0  0  0  0  0  0
   -3.3380   -1.2731    0.8828 C   0  0  0  0  0  0  0  0  0  0  0  0
   -4.8173   -0.9869    1.7138 Cl  0  0  0  0  0  0  0  0  0  0  0  0
   -3.0699   -2.5321    0.3686 C   0  0  0  0  0  0  0  0  0  0  0  0
   -1.8601   -2.7552   -0.2842 C   0  0  0  0  0  0  0  0  0  0  0  0
   -0.9108   -1.7261   -0.4178 C   0  0  0  0  0  0  0  0  0  0  0  0
    0.2712   -2.0786   -1.0818 N   0  0  0  0  0  0  0  0  0  0  0  0
    1.5187   -1.5166   -1.0492 C   0  0  0  0  0  0  0  0  0  0  0  0
    2.4023   -2.0285   -1.7417 O   0  0  0  0  0  0  0  0  0  0  0  0
    1.8821   -0.4255   -0.1273 C   0  0  0  0  0  0  0  0  0  0  0  0
    3.2114   -0.4020    0.3322 C   0  0  0  0  0  0  0  0  0  0  0  0
    3.6500    0.6251    1.1551 C   0  0  0  0  0  0  0  0  0  0  0  0
    2.7434    1.6090    1.4805 C   0  0  0  0  0  0  0  0  0  0  0  0
    1.4656    1.6211    1.0429 N   0  0  0  0  0  0  0  0  0  0  0  0
    1.0244    0.6068    0.2422 C   0  0  0  0  0  0  0  0  0  0  0  0
  1  2  1  0
  2  3  1  0
  3  4  1  0
  4  5  2  0
  5  6  1  0
  6  7  1  0
  6  8  2  0
  8  9  1  0
  9 10  2  0
 10 11  1  0
 11 12  1  0
 12 13  2  0
 12 14  1  0
 14 15  2  0
 15 16  1  0
 16 17  2  0
 17 18  1  0
 18 19  2  0
 10  4  1  0
 19  3  1  0
 19 14  1  0
M  END
>  <target>  (90) 
-5.36

$$$$

     RDKit          3D

 11 11  0  0  0  0  0  0  0  0999 V2000
    2.9450    0.1382   -0.8912 O   0  0  0  0  0  0  0  0  0  0  0  0
    2.2952    0.2653    0.1538 N   0  0  0  0  0  0  0  0  0  0  0  0
    2.7559    0.4875    1.2799 O   0  0  0  0  0  0  0  0  0  0  0  0
    0.8686    0.0817    0.0572 C   0  0  0  0  0  0  0  0  0  0  0  0
    0.0224    1.1905   -0.0176 C   0  0  0  0  0  0  0  0  0  0  0  0
    0.6473    2.8061   -0.0186 Cl  0  0  0  0  0  0  0  0  0  0  0  0
   -1.3554    0.9496   -0.1042 C   0  0  0  0  0  0  0  0  0  0  0  0
   -2.5167    2.2280   -0.2028 Cl  0  0  0  0  0  0  0  0  0  0  0  0
   -1.8502   -0.3641   -0.1160 C   0  0  0  0  0  0  0  0  0  0  0  0
   -0.9804   -1.4543   -0.0437 C   0  0  0  0  0  0  0  0  0  0  0  0
    0.3909   -1.2362    0.0432 C   0  0  0  0  0  0  0  0  0  0  0  0
  1  2  1  0
  2  3  2  0
  2  4  1  0
  4  5  2  0
  5  6  1  0
  5  7  1  0
  7  8  1  0
  7  9  2  0
  9 10  1  0
 10 11  2  0
 11  4  1  0
M  CHG  2   1  -1   2   1
M  END
>  <target>  (91) 
-3.48

$$$$

     RDKit          3D

 17 17  0  0  0  0  0  0  0  0999 V2000
    4.1218    0.3616    0.9496 C   0  0  0  0  0  0  0  0  0  0  0  0
    2.7791    1.0443    0.7345 C   0  0  0  0  0  0  0  0  0  0  0  0
    1.7432    0.0699    0.1630 C   0  0  0  0  0  0  0  0  0  0  0  0
    0.3181    0.6808    0.0452 C   0  0  0  0  0  0  0  0  0  0  0  0
    0.3213    1.8481   -0.9573 C   0  0  0  0  0  0  0  0  0  0  0  0
   -0.7662   -0.4264   -0.2392 C   0  0  0  0  0  0  0  0  0  0  0  0
   -2.2080    0.1463   -0.4346 C   0  0  0  0  0  0  0  0  0  0  0  0
   -2.7120    1.0522    0.6614 C   0  0  0  0  0  0  0  0  0  0  0  0
   -3.1731    2.2927    0.4574 C   0  0  0  0  0  0  0  0  0  0  0  0
   -0.4697   -1.2003   -1.5249 C   0  0  0  0  0  0  0  0  0  0  0  0
    0.0801   -0.7205   -2.5130 O   0  0  0  0  0  0  0  0  0  0  0  0
   -0.9381   -2.4879   -1.5860 N   0  0  0  0  0  0  0  0  0  0  0  0
   -1.3203   -3.2423   -0.5232 C   0  0  0  0  0  0  0  0  0  0  0  0
   -1.7495   -4.8365   -0.7050 S   0  0  0  0  0  0  0  0  0  0  0  0
   -1.3081   -2.6487    0.6979 N   0  0  0  0  0  0  0  0  0  0  0  0
   -0.8527   -1.3823    0.9562 C   0  0  0  0  0  0  0  0  0  0  0  0
   -0.6005   -1.0599    2.1158 O   0  0  0  0  0  0  0  0  0  0  0  0
  1  2  1  0
  2  3  1  0
  3  4  1  0
  4  5  1  0
  4  6  1  0
  6  7  1  0
  7  8  1  0
  8  9  2  0
  6 10  1  0
 10 11  2  0
 10 12  1  0
 12 13  1  0
 13 14  2  0
 13 15  1  0
 15 16  1  0
 16 17  2  0
 16  6  1  0
M  END
>  <target>  (92) 
-3.46

$$$$

     RDKit          3D

 16 19  0  0  0  0  0  0  0  0999 V2000
    3.5722   -0.9940   -0.0438 C   0  0  0  0  0  0  0  0  0  0  0  0
    3.6855    0.4072    0.0454 C   0  0  0  0  0  0  0  0  0  0  0  0
    2.5497    1.2222    0.0909 C   0  0  0  0  0  0  0  0  0  0  0  0
    1.3130    0.6068    0.0454 C   0  0  0  0  0  0  0  0  0  0  0  0
    1.1984   -0.8099   -0.0448 C   0  0  0  0  0  0  0  0  0  0  0  0
    2.3203   -1.6159   -0.0898 C   0  0  0  0  0  0  0  0  0  0  0  0
   -0.2243   -1.1225   -0.0722 C   0  0  0  0  0  0  0  0  0  0  0  0
   -0.9293   -2.3097   -0.1510 C   0  0  0  0  0  0  0  0  0  0  0  0
   -2.3352   -2.2552   -0.1550 C   0  0  0  0  0  0  0  0  0  0  0  0
   -3.0249   -1.0248   -0.0809 C   0  0  0  0  0  0  0  0  0  0  0  0
   -2.3107    0.1868   -0.0005 C   0  0  0  0  0  0  0  0  0  0  0  0
   -2.8210    1.4974    0.0796 C   0  0  0  0  0  0  0  0  0  0  0  0
   -1.9426    2.6011    0.1541 C   0  0  0  0  0  0  0  0  0  0  0  0
   -0.5463    2.4290    0.1506 C   0  0  0  0  0  0  0  0  0  0  0  0
   -0.0411    1.1440    0.0721 C   0  0  0  0  0  0  0  0  0  0  0  0
   -0.9225    0.0746   -0.0002 C   0  0  0  0  0  0  0  0  0  0  0  0
  1  2  2  0
  2  3  1  0
  3  4  2  0
  4  5  1  0
  5  6  2  0
  5  7  1  0
  7  8  2  0
  8  9  1  0
  9 10  2  0
 10 11  1  0
 11 12  1  0
 12 13  2  0
 13 14  1  0
 14 15  2  0
 15 16  1  0
  6  1  1  0
 15  4  1  0
 16  7  1  0
 16 11  2  0
M  END
>  <target>  (93) 
-6.0

$$$$

     RDKit          3D

  7  6  0  0  0  0  0  0  0  0999 V2000
    3.2815   -0.4957    0.2497 C   0  0  0  0  0  0  0  0  0  0  0  0
    2.1106    0.3625   -0.1945 C   0  0  0  0  0  0  0  0  0  0  0  0
    0.7809   -0.3645   -0.0345 C   0  0  0  0  0  0  0  0  0  0  0  0
   -0.2568    0.5092   -0.4757 O   0  0  0  0  0  0  0  0  0  0  0  0
   -1.5577   -0.0845   -0.4469 C   0  0  0  0  0  0  0  0  0  0  0  0
   -2.4492    0.7531   -1.3571 C   0  0  0  0  0  0  0  0  0  0  0  0
   -2.1174   -0.0986    0.9720 C   0  0  0  0  0  0  0  0  0  0  0  0
  1  2  1  0
  2  3  1  0
  3  4  1  0
  4  5  1  0
  5  6  1  0
  5  7  1  0
M  END
>  <target>  (94) 
-1.34

$$$$

     RDKit          3D

 12 13  0  0  0  0  0  0  0  0999 V2000
    3.4119   -0.4501   -0.4034 C   0  0  0  0  0  0  0  0  0  0  0  0
    1.9511   -0.2187   -0.1542 C   0  0  0  0  0  0  0  0  0  0  0  0
    1.4748    1.0622    0.1332 C   0  0  0  0  0  0  0  0  0  0  0  0
    0.1045    1.2998    0.3383 C   0  0  0  0  0  0  0  0  0  0  0  0
   -0.3404    2.7043    0.6533 C   0  0  0  0  0  0  0  0  0  0  0  0
   -0.8215    0.2270    0.2429 C   0  0  0  0  0  0  0  0  0  0  0  0
   -2.2134    0.3802    0.4349 C   0  0  0  0  0  0  0  0  0  0  0  0
   -3.0916   -0.7009    0.3280 C   0  0  0  0  0  0  0  0  0  0  0  0
   -2.6011   -1.9639    0.0256 C   0  0  0  0  0  0  0  0  0  0  0  0
   -1.2329   -2.1456   -0.1691 C   0  0  0  0  0  0  0  0  0  0  0  0
   -0.3366   -1.0684   -0.0638 C   0  0  0  0  0  0  0  0  0  0  0  0
    1.0380   -1.2715   -0.2628 C   0  0  0  0  0  0  0  0  0  0  0  0
  1  2  1  0
  2  3  2  0
  3  4  1  0
  4  5  1  0
  4  6  2  0
  6  7  1  0
  7  8  2  0
  8  9  1  0
  9 10  2  0
 10 11  1  0
 11 12  2  0
 12  2  1  0
 11  6  1  0
M  END
>  <target>  (95) 
-4.29

$$$$

     RDKit          3D

 20 21  0  0  0  0  0  0  0  0999 V2000
    2.3901   -2.7391    0.7472 C   0  0  0  0  0  0  0  0  0  0  0  0
    1.3252   -1.9870    1.5353 C   0  0  0  0  0  0  0  0  0  0  0  0
    0.5973   -0.9643    0.6815 C   0  0  0  0  0  0  0  0  0  0  0  0
   -0.6005   -1.1876    0.0812 C   0  0  0  0  0  0  0  0  0  0  0  0
   -1.3319   -2.5176    0.1099 C   0  0  0  0  0  0  0  0  0  0  0  0
   -2.3980   -2.5632    1.1972 C   0  0  0  0  0  0  0  0  0  0  0  0
   -1.2925   -0.1432   -0.7118 C   0  0  0  0  0  0  0  0  0  0  0  0
   -1.8958    0.9510   -0.0757 C   0  0  0  0  0  0  0  0  0  0  0  0
   -2.5398    1.9399   -0.8232 C   0  0  0  0  0  0  0  0  0  0  0  0
   -2.5822    1.8293   -2.2091 C   0  0  0  0  0  0  0  0  0  0  0  0
   -3.1980    2.7724   -2.9778 O   0  0  0  0  0  0  0  0  0  0  0  0
   -1.9941    0.7496   -2.8568 C   0  0  0  0  0  0  0  0  0  0  0  0
   -1.3484   -0.2368   -2.1092 C   0  0  0  0  0  0  0  0  0  0  0  0
    1.2928    0.3423    0.5928 C   0  0  0  0  0  0  0  0  0  0  0  0
    1.3498    1.1906    1.7071 C   0  0  0  0  0  0  0  0  0  0  0  0
    1.9988    2.4236    1.6223 C   0  0  0  0  0  0  0  0  0  0  0  0
    2.5891    2.8096    0.4250 C   0  0  0  0  0  0  0  0  0  0  0  0
    3.2081    4.0239    0.3844 O   0  0  0  0  0  0  0  0  0  0  0  0
    2.5456    1.9816   -0.6920 C   0  0  0  0  0  0  0  0  0  0  0  0
    1.8983    0.7467   -0.6054 C   0  0  0  0  0  0  0  0  0  0  0  0
  1  2  1  0
  2  3  1  0
  3  4  2  3
  4  5  1  0
  5  6  1  0
  4  7  1  0
  7  8  2  0
  8  9  1  0
  9 10  2  0
 10 11  1  0
 10 12  1  0
 12 13  2  0
  3 14  1  0
 14 15  2  0
 15 16  1  0
 16 17  2  0
 17 18  1  0
 17 19  1  0
 19 20  2  0
 13  7  1  0
 20 14  1  0
M  END
>  <target>  (96) 
-4.07

$$$$

     RDKit          3D

 14 14  0  0  0  0  0  0  0  0999 V2000
    1.2956   -0.0765    0.0218 C   0  0  0  0  0  0  0  0  0  0  0  0
    2.6917   -0.4184    0.0311 C   0  0  0  0  0  0  0  0  0  0  0  0
    3.8175   -0.6970    0.0384 N   0  0  0  0  0  0  0  0  0  0  0  0
    0.3198   -1.0873   -0.0530 C   0  0  0  0  0  0  0  0  0  0  0  0
    0.8106   -2.7564   -0.1344 Cl  0  0  0  0  0  0  0  0  0  0  0  0
   -1.0491   -0.7619   -0.0627 C   0  0  0  0  0  0  0  0  0  0  0  0
   -2.0389   -1.8013   -0.1393 C   0  0  0  0  0  0  0  0  0  0  0  0
   -2.8355   -2.6419   -0.2012 N   0  0  0  0  0  0  0  0  0  0  0  0
   -1.4418    0.5864    0.0032 C   0  0  0  0  0  0  0  0  0  0  0  0
   -3.1364    0.9882   -0.0088 Cl  0  0  0  0  0  0  0  0  0  0  0  0
   -0.4717    1.6040    0.0782 C   0  0  0  0  0  0  0  0  0  0  0  0
   -0.9623    3.2721    0.1595 Cl  0  0  0  0  0  0  0  0  0  0  0  0
    0.8960    1.2698    0.0873 C   0  0  0  0  0  0  0  0  0  0  0  0
    2.1046    2.5203    0.1799 Cl  0  0  0  0  0  0  0  0  0  0  0  0
  1  2  1  0
  2  3  3  0
  1  4  2  0
  4  5  1  0
  4  6  1  0
  6  7  1  0
  7  8  3  0
  6  9  2  0
  9 10  1  0
  9 11  1  0
 11 12  1  0
 11 13  2  0
 13 14  1  0
 13  1  1  0
M  END
>  <target>  (97) 
-5.64

$$$$

     RDKit          3D

 16 17  0  0  0  0  0  0  0  0999 V2000
   -3.9559   -1.2308   -1.9615 Cl  0  0  0  0  0  0  0  0  0  0  0  0
   -2.9704   -0.3846   -0.8340 C   0  0  0  0  0  0  0  0  0  0  0  0
   -3.5586    0.4774    0.0866 C   0  0  0  0  0  0  0  0  0  0  0  0
   -2.7565    1.1611    1.0006 C   0  0  0  0  0  0  0  0  0  0  0  0
   -1.3683    0.9818    0.9907 C   0  0  0  0  0  0  0  0  0  0  0  0
   -0.4438    1.8518    2.1663 Cl  0  0  0  0  0  0  0  0  0  0  0  0
   -0.7593    0.1139    0.0624 C   0  0  0  0  0  0  0  0  0  0  0  0
   -1.5869   -0.5680   -0.8497 C   0  0  0  0  0  0  0  0  0  0  0  0
    0.6928   -0.1062    0.0086 C   0  0  0  0  0  0  0  0  0  0  0  0
    1.2585   -1.2769    0.5352 C   0  0  0  0  0  0  0  0  0  0  0  0
    2.6390   -1.4900    0.4814 C   0  0  0  0  0  0  0  0  0  0  0  0
    3.4751   -0.5358   -0.1029 C   0  0  0  0  0  0  0  0  0  0  0  0
    5.1705   -0.8646   -0.1367 Cl  0  0  0  0  0  0  0  0  0  0  0  0
    2.9254    0.6344   -0.6351 C   0  0  0  0  0  0  0  0  0  0  0  0
    3.8937    1.8584   -1.3771 Cl  0  0  0  0  0  0  0  0  0  0  0  0
    1.5425    0.8443   -0.5797 C   0  0  0  0  0  0  0  0  0  0  0  0
  1  2  1  0
  2  3  2  0
  3  4  1  0
  4  5  2  0
  5  6  1  0
  5  7  1  0
  7  8  2  0
  7  9  1  0
  9 10  2  0
 10 11  1  0
 11 12  2  0
 12 13  1  0
 12 14  1  0
 14 15  1  0
 14 16  2  0
  8  2  1  0
 16  9  1  0
M  END
>  <target>  (98) 
-7.25

$$$$

     RDKit          3D

  9 10  0  0  0  0  0  0  0  0999 V2000
    2.7027   -0.5403    0.3505 C   0  0  0  0  0  0  0  0  0  0  0  0
    2.5868    0.8830    0.4242 O   0  0  0  0  0  0  0  0  0  0  0  0
    1.7449    0.2192   -0.5377 C   0  0  0  0  0  0  0  0  0  0  0  0
    0.2659    0.1656   -0.2614 C   0  0  0  0  0  0  0  0  0  0  0  0
   -0.4820   -0.9907   -0.5414 C   0  0  0  0  0  0  0  0  0  0  0  0
   -1.8574   -1.0451   -0.2992 C   0  0  0  0  0  0  0  0  0  0  0  0
   -2.5153    0.0625    0.2278 C   0  0  0  0  0  0  0  0  0  0  0  0
   -1.7988    1.2217    0.5106 C   0  0  0  0  0  0  0  0  0  0  0  0
   -0.4240    1.2698    0.2657 C   0  0  0  0  0  0  0  0  0  0  0  0
  1  2  1  0
  2  3  1  0
  3  4  1  0
  4  5  2  0
  5  6  1  0
  6  7  2  0
  7  8  1  0
  8  9  2  0
  3  1  1  0
  9  4  1  0
M  END
>  <target>  (99) 
-1.6

$$$$

     RDKit          3D

  9  9  0  0  0  0  0  0  0  0999 V2000
   -1.9766   -0.7048   -1.0722 C   0  0  0  0  0  0  0  0  0  0  0  0
   -1.3436   -0.3036    0.2625 C   0  0  0  0  0  0  0  0  0  0  0  0
   -1.9879    0.9724    0.8101 C   0  0  0  0  0  0  0  0  0  0  0  0
    0.1635   -0.1619    0.1452 C   0  0  0  0  0  0  0  0  0  0  0  0
    1.0031   -0.9987    0.8959 C   0  0  0  0  0  0  0  0  0  0  0  0
    2.3919   -0.8853    0.8031 C   0  0  0  0  0  0  0  0  0  0  0  0
    2.9600    0.0658   -0.0409 C   0  0  0  0  0  0  0  0  0  0  0  0
    2.1401    0.9039   -0.7926 C   0  0  0  0  0  0  0  0  0  0  0  0
    0.7512    0.7914   -0.7007 C   0  0  0  0  0  0  0  0  0  0  0  0
  1  2  1  0
  2  3  1  0
  2  4  1  0
  4  5  2  0
  5  6  1  0
  6  7  2  0
  7  8  1  0
  8  9  2  0
  9  4  1  0
M  END
>  <target>  (100) 
-3.27

$$$$

     RDKit          3D

 24 27  0  0  0  0  0  0  0  0999 V2000
    2.0979    1.7388    0.9978 C   0  0  0  0  0  0  0  0  0  0  0  0
    1.9714    0.4648    0.1443 C   0  0  0  0  0  0  0  0  0  0  0  0
    1.3599    0.8328   -1.2321 C   0  0  0  0  0  0  0  0  0  0  0  0
   -0.1258    1.1853   -1.1648 C   0  0  0  0  0  0  0  0  0  0  0  0
   -0.9613    0.0543   -0.5321 C   0  0  0  0  0  0  0  0  0  0  0  0
   -0.3933   -0.3128    0.8635 C   0  0  0  0  0  0  0  0  0  0  0  0
   -1.1804   -1.4774    1.4829 C   0  0  0  0  0  0  0  0  0  0  0  0
   -2.6624   -1.1496    1.5905 C   0  0  0  0  0  0  0  0  0  0  0  0
   -3.2385   -0.7622    0.2499 C   0  0  0  0  0  0  0  0  0  0  0  0
   -4.3414   -1.3831   -0.2037 C   0  0  0  0  0  0  0  0  0  0  0  0
   -5.0047   -0.9661   -1.4581 C   0  0  0  0  0  0  0  0  0  0  0  0
   -5.9648   -1.6079   -1.8751 O   0  0  0  0  0  0  0  0  0  0  0  0
   -4.5202    0.2898   -2.1299 C   0  0  0  0  0  0  0  0  0  0  0  0
   -3.0105    0.4083   -1.9888 C   0  0  0  0  0  0  0  0  0  0  0  0
   -2.5113    0.3528   -0.5131 C   0  0  0  0  0  0  0  0  0  0  0  0
   -2.8402    1.6981    0.1735 C   0  0  0  0  0  0  0  0  0  0  0  0
    1.1211   -0.6157    0.8450 C   0  0  0  0  0  0  0  0  0  0  0  0
    1.5274   -1.9239    0.1469 C   0  0  0  0  0  0  0  0  0  0  0  0
    2.9561   -1.7208   -0.3640 C   0  0  0  0  0  0  0  0  0  0  0  0
    3.3262   -0.2594   -0.0721 C   0  0  0  0  0  0  0  0  0  0  0  0
    4.2794   -0.2155    1.1240 C   0  0  0  0  0  0  0  0  0  0  0  0
    3.9924   -0.7116    2.2149 O   0  0  0  0  0  0  0  0  0  0  0  0
    5.6231    0.4653    0.9022 C   0  0  0  0  0  0  0  0  0  0  0  0
    5.4797    1.8417    0.6073 O   0  0  0  0  0  0  0  0  0  0  0  0
  1  2  1  0
  2  3  1  0
  3  4  1  0
  4  5  1  0
  5  6  1  0
  6  7  1  0
  7  8  1  0
  8  9  1  0
  9 10  2  0
 10 11  1  0
 11 12  2  0
 11 13  1  0
 13 14  1  0
 14 15  1  0
 15 16  1  0
  6 17  1  0
 17 18  1  0
 18 19  1  0
 19 20  1  0
 20 21  1  0
 21 22  2  0
 21 23  1  0
 23 24  1  0
 20  2  1  0
 17  2  1  0
 15  5  1  0
 15  9  1  0
M  END
>  <target>  (101) 
-3.45

$$$$

     RDKit          3D

 14 15  0  0  0  0  0  0  0  0999 V2000
   -2.2377    0.5158    0.1047 C   0  0  0  0  0  0  0  0  0  0  0  0
   -3.8038    1.2636    0.2404 Cl  0  0  0  0  0  0  0  0  0  0  0  0
   -2.1285   -0.8601   -0.1182 C   0  0  0  0  0  0  0  0  0  0  0  0
   -3.5572   -1.8441   -0.2631 Cl  0  0  0  0  0  0  0  0  0  0  0  0
   -0.8548   -1.4408   -0.2241 C   0  0  0  0  0  0  0  0  0  0  0  0
   -0.6932   -3.1578   -0.5026 Cl  0  0  0  0  0  0  0  0  0  0  0  0
    0.3169   -0.6759   -0.1120 C   0  0  0  0  0  0  0  0  0  0  0  0
    1.5409   -1.2544   -0.2171 N   0  0  0  0  0  0  0  0  0  0  0  0
    2.6313   -0.4709   -0.1013 C   0  0  0  0  0  0  0  0  0  0  0  0
    2.5243    0.8775    0.1172 C   0  0  0  0  0  0  0  0  0  0  0  0
    1.3239    1.4803    0.2260 N   0  0  0  0  0  0  0  0  0  0  0  0
    0.2064    0.7171    0.1137 C   0  0  0  0  0  0  0  0  0  0  0  0
   -1.0714    1.2889    0.2182 C   0  0  0  0  0  0  0  0  0  0  0  0
   -1.1826    3.0098    0.4968 Cl  0  0  0  0  0  0  0  0  0  0  0  0
  1  2  1  0
  1  3  2  0
  3  4  1  0
  3  5  1  0
  5  6  1  0
  5  7  2  0
  7  8  1  0
  8  9  2  0
  9 10  1  0
 10 11  2  0
 11 12  1  0
 12 13  2  0
 13 14  1  0
 12  7  1  0
 13  1  1  0
M  END
>  <target>  (102) 
-5.43

$$$$

     RDKit          3D

 10 10  0  0  0  0  0  0  0  0999 V2000
    1.0054    1.2071   -0.7920 C   0  0  0  0  0  0  0  0  0  0  0  0
    0.1355    1.6042    0.2770 O   0  0  0  0  0  0  0  0  0  0  0  0
   -1.1247    0.9467    0.2420 C   0  0  0  0  0  0  0  0  0  0  0  0
   -1.8545    1.3835    1.3801 O   0  0  0  0  0  0  0  0  0  0  0  0
   -0.9559   -0.5791    0.3506 C   0  0  0  0  0  0  0  0  0  0  0  0
   -0.3391   -0.8983    1.6220 O   0  0  0  0  0  0  0  0  0  0  0  0
   -0.0538   -1.0669   -0.7852 C   0  0  0  0  0  0  0  0  0  0  0  0
    0.1850   -2.4705   -0.6572 O   0  0  0  0  0  0  0  0  0  0  0  0
    1.2777   -0.3009   -0.7842 C   0  0  0  0  0  0  0  0  0  0  0  0
    2.0515   -0.6485    0.3742 O   0  0  0  0  0  0  0  0  0  0  0  0
  1  2  1  0
  2  3  1  0
  3  4  1  0
  3  5  1  0
  5  6  1  0
  5  7  1  0
  7  8  1  0
  7  9  1  0
  9 10  1  0
  9  1  1  0
M  END
>  <target>  (103) 
0.39

$$$$

     RDKit          3D

  3  2  0  0  0  0  0  0  0  0999 V2000
    1.4564    0.8502   -0.0722 Cl  0  0  0  0  0  0  0  0  0  0  0  0
   -0.0001   -0.1480    0.0007 C   0  0  0  0  0  0  0  0  0  0  0  0
   -1.4558    0.8520    0.0645 Cl  0  0  0  0  0  0  0  0  0  0  0  0
  1  2  1  0
  2  3  1  0
M  END
>  <target>  (104) 
-0.63

$$$$

     RDKit          3D

 12 13  0  0  0  0  0  0  0  0999 V2000
   -2.9100   -0.5920   -0.4856 C   0  0  0  0  0  0  0  0  0  0  0  0
   -2.1746   -0.0559    0.7340 C   0  0  0  0  0  0  0  0  0  0  0  0
   -0.8480    0.5764    0.3671 C   0  0  0  0  0  0  0  0  0  0  0  0
   -0.8237    1.9694    0.1729 C   0  0  0  0  0  0  0  0  0  0  0  0
    0.3540    2.6213   -0.1744 C   0  0  0  0  0  0  0  0  0  0  0  0
    1.5267    1.8908   -0.3380 C   0  0  0  0  0  0  0  0  0  0  0  0
    1.5393    0.4998   -0.1612 C   0  0  0  0  0  0  0  0  0  0  0  0
    2.7345   -0.2177   -0.3371 C   0  0  0  0  0  0  0  0  0  0  0  0
    2.7736   -1.6006   -0.1717 C   0  0  0  0  0  0  0  0  0  0  0  0
    1.6159   -2.2845    0.1715 C   0  0  0  0  0  0  0  0  0  0  0  0
    0.4197   -1.5846    0.3508 C   0  0  0  0  0  0  0  0  0  0  0  0
    0.3456   -0.1810    0.1928 C   0  0  0  0  0  0  0  0  0  0  0  0
  1  2  1  0
  2  3  1  0
  3  4  2  0
  4  5  1  0
  5  6  2  0
  6  7  1  0
  7  8  2  0
  8  9  1  0
  9 10  2  0
 10 11  1  0
 11 12  2  0
 12  3  1  0
 12  7  1  0
M  END
>  <target>  (105) 
-4.17

$$$$

     RDKit          3D

  4  3  0  0  0  0  0  0  0  0999 V2000
   -1.0088   -0.1653    0.0153 C   0  0  0  0  0  0  0  0  0  0  0  0
    0.2822   -0.7709   -0.0593 O   0  0  0  0  0  0  0  0  0  0  0  0
    1.3059    0.1177   -0.0263 C   0  0  0  0  0  0  0  0  0  0  0  0
    1.2151    1.3316    0.0579 O   0  0  0  0  0  0  0  0  0  0  0  0
  1  2  1  0
  2  3  1  0
  3  4  2  0
M  END
>  <target>  (106) 
0.58

$$$$

     RDKit          3D

 10 10  0  0  0  0  0  0  0  0999 V2000
   -1.1340    2.0839    0.1307 O   0  0  0  0  0  0  0  0  0  0  0  0
   -0.2974    1.0035    0.0543 C   0  0  0  0  0  0  0  0  0  0  0  0
    1.0636    1.3090    0.0204 C   0  0  0  0  0  0  0  0  0  0  0  0
    2.0139    0.2889   -0.0573 C   0  0  0  0  0  0  0  0  0  0  0  0
    1.6090   -1.0448   -0.1016 C   0  0  0  0  0  0  0  0  0  0  0  0
    0.2501   -1.3635   -0.0684 C   0  0  0  0  0  0  0  0  0  0  0  0
   -0.7058   -0.3368    0.0098 C   0  0  0  0  0  0  0  0  0  0  0  0
   -2.1250   -0.6958    0.0433 N   0  0  0  0  0  0  0  0  0  0  0  0
   -2.9485    0.2315    0.1125 O   0  0  0  0  0  0  0  0  0  0  0  0
   -2.4257   -1.8969    0.0012 O   0  0  0  0  0  0  0  0  0  0  0  0
  1  2  1  0
  2  3  2  0
  3  4  1  0
  4  5  2  0
  5  6  1  0
  6  7  2  0
  7  8  1  0
  8  9  1  0
  8 10  2  0
  7  2  1  0
M  CHG  2   8   1   9  -1
M  END
>  <target>  (107) 
-1.74

$$$$

     RDKit          3D

  9  9  0  0  0  0  0  0  0  0999 V2000
    2.2238   -0.1067   -0.0239 C   0  0  0  0  0  0  0  0  0  0  0  0
    0.7314   -0.0970   -0.0035 C   0  0  0  0  0  0  0  0  0  0  0  0
   -0.0347   -1.1915    0.0850 C   0  0  0  0  0  0  0  0  0  0  0  0
   -1.3983   -1.1064    0.0983 N   0  0  0  0  0  0  0  0  0  0  0  0
   -2.0858    0.0735    0.0243 C   0  0  0  0  0  0  0  0  0  0  0  0
   -3.3113    0.1129    0.0389 O   0  0  0  0  0  0  0  0  0  0  0  0
   -1.3172    1.1976   -0.0663 N   0  0  0  0  0  0  0  0  0  0  0  0
    0.0497    1.2230   -0.0875 C   0  0  0  0  0  0  0  0  0  0  0  0
    0.6803    2.2716   -0.1708 O   0  0  0  0  0  0  0  0  0  0  0  0
  1  2  1  0
  2  3  2  0
  3  4  1  0
  4  5  1  0
  5  6  2  0
  5  7  1  0
  7  8  1  0
  8  9  2  0
  8  2  1  0
M  END
>  <target>  (108) 
-1.506

$$$$

     RDKit          3D

  4  3  0  0  0  0  0  0  0  0999 V2000
    1.3563   -0.5146   -0.0416 C   0  0  0  0  0  0  0  0  0  0  0  0
   -0.0644   -0.0818   -0.3970 C   0  0  0  0  0  0  0  0  0  0  0  0
   -1.0857   -0.8637    0.4261 C   0  0  0  0  0  0  0  0  0  0  0  0
   -0.2378    1.4201   -0.1818 C   0  0  0  0  0  0  0  0  0  0  0  0
  1  2  1  0
  2  3  1  0
  2  4  1  0
M  END
>  <target>  (109) 
-2.55

$$$$

     RDKit          3D

 19 21  0  0  0  0  0  0  0  0999 V2000
   -4.5834   -0.8616    1.8401 O   0  0  0  0  0  0  0  0  0  0  0  0
   -3.4459   -1.5712    1.3674 C   0  0  0  0  0  0  0  0  0  0  0  0
   -2.1972   -0.6944    1.3854 C   0  0  0  0  0  0  0  0  0  0  0  0
   -1.1041   -1.3820    0.7363 O   0  0  0  0  0  0  0  0  0  0  0  0
   -0.4058   -0.4293   -0.0949 C   0  0  0  0  0  0  0  0  0  0  0  0
   -0.9227    0.9626    0.2933 C   0  0  0  0  0  0  0  0  0  0  0  0
   -0.9079    1.9167   -0.7697 O   0  0  0  0  0  0  0  0  0  0  0  0
   -2.3537    0.6532    0.6873 C   0  0  0  0  0  0  0  0  0  0  0  0
   -3.1646    0.5531   -0.4905 O   0  0  0  0  0  0  0  0  0  0  0  0
    1.0260   -0.5877    0.0902 N   0  0  0  0  0  0  0  0  0  0  0  0
    1.6724   -1.5859    0.7736 C   0  0  0  0  0  0  0  0  0  0  0  0
    2.9836   -1.4507    0.7284 N   0  0  0  0  0  0  0  0  0  0  0  0
    3.1875   -0.3255   -0.0336 C   0  0  0  0  0  0  0  0  0  0  0  0
    4.3386    0.3358   -0.4523 C   0  0  0  0  0  0  0  0  0  0  0  0
    5.5968   -0.0994   -0.1209 O   0  0  0  0  0  0  0  0  0  0  0  0
    4.2499    1.4445   -1.2103 N   0  0  0  0  0  0  0  0  0  0  0  0
    3.0136    1.8730   -1.5358 C   0  0  0  0  0  0  0  0  0  0  0  0
    1.8164    1.3351   -1.1930 N   0  0  0  0  0  0  0  0  0  0  0  0
    1.9876    0.2292   -0.4435 C   0  0  0  0  0  0  0  0  0  0  0  0
  1  2  1  0
  2  3  1  0
  3  4  1  0
  4  5  1  0
  5  6  1  0
  6  7  1  0
  6  8  1  0
  8  9  1  0
  5 10  1  0
 10 11  1  0
 11 12  2  0
 12 13  1  0
 13 14  2  0
 14 15  1  0
 14 16  1  0
 16 17  2  0
 17 18  1  0
 18 19  2  0
  8  3  1  0
 19 10  1  0
 19 13  1  0
M  END
>  <target>  (110) 
-1.23

$$$$

     RDKit          3D

 11 11  0  0  0  0  0  0  0  0999 V2000
   -2.7461    0.4153   -0.1109 O   0  0  0  0  0  0  0  0  0  0  0  0
   -1.3904    0.2317   -0.0591 C   0  0  0  0  0  0  0  0  0  0  0  0
   -0.8408   -1.0422    0.1296 C   0  0  0  0  0  0  0  0  0  0  0  0
   -2.0573   -2.7299    0.3424 I   0  0  0  0  0  0  0  0  0  0  0  0
    0.5456   -1.2139    0.1803 C   0  0  0  0  0  0  0  0  0  0  0  0
    1.3897   -0.1069    0.0417 C   0  0  0  0  0  0  0  0  0  0  0  0
    2.8122   -0.2796    0.0932 C   0  0  0  0  0  0  0  0  0  0  0  0
    3.9625   -0.4234    0.1354 N   0  0  0  0  0  0  0  0  0  0  0  0
    0.8459    1.1681   -0.1472 C   0  0  0  0  0  0  0  0  0  0  0  0
   -0.5421    1.3359   -0.1973 C   0  0  0  0  0  0  0  0  0  0  0  0
   -1.2845    3.2724   -0.4825 I   0  0  0  0  0  0  0  0  0  0  0  0
  1  2  1  0
  2  3  2  0
  3  4  1  0
  3  5  1  0
  5  6  2  0
  6  7  1  0
  7  8  3  0
  6  9  1  0
  9 10  2  0
 10 11  1  0
 10  2  1  0
M  END
>  <target>  (111) 
-3.61

$$$$

     RDKit          3D

 21 22  0  0  0  0  0  0  0  0999 V2000
   -1.9215   -1.4450    0.9335 O   0  0  0  0  0  0  0  0  0  0  0  0
   -2.7740   -0.6150    0.2534 C   0  0  0  0  0  0  0  0  0  0  0  0
   -4.1509   -0.8245    0.3793 C   0  0  0  0  0  0  0  0  0  0  0  0
   -5.0445    0.0035   -0.3004 C   0  0  0  0  0  0  0  0  0  0  0  0
   -4.5612    1.0349   -1.1012 C   0  0  0  0  0  0  0  0  0  0  0  0
   -5.6678    2.0527   -1.9369 Cl  0  0  0  0  0  0  0  0  0  0  0  0
   -3.1894    1.2472   -1.2294 C   0  0  0  0  0  0  0  0  0  0  0  0
   -2.2735    0.4231   -0.5521 C   0  0  0  0  0  0  0  0  0  0  0  0
   -0.8125    0.7209   -0.7453 C   0  0  0  0  0  0  0  0  0  0  0  0
   -0.4973    1.6558   -1.4747 O   0  0  0  0  0  0  0  0  0  0  0  0
    0.0707   -0.0975   -0.0735 N   0  0  0  0  0  0  0  0  0  0  0  0
    1.4826   -0.0601   -0.0625 C   0  0  0  0  0  0  0  0  0  0  0  0
    2.2283    0.8793   -0.7830 C   0  0  0  0  0  0  0  0  0  0  0  0
    3.6280    0.8711   -0.7362 C   0  0  0  0  0  0  0  0  0  0  0  0
    4.2904   -0.0863    0.0389 C   0  0  0  0  0  0  0  0  0  0  0  0
    3.5673   -1.0347    0.7672 C   0  0  0  0  0  0  0  0  0  0  0  0
    2.1723   -1.0156    0.7120 C   0  0  0  0  0  0  0  0  0  0  0  0
    1.3199   -2.2112    1.6318 Cl  0  0  0  0  0  0  0  0  0  0  0  0
    5.7563   -0.0992    0.0913 N   0  0  0  0  0  0  0  0  0  0  0  0
    6.2946   -0.9672    0.7923 O   0  0  0  0  0  0  0  0  0  0  0  0
    6.3661    0.7552   -0.5660 O   0  0  0  0  0  0  0  0  0  0  0  0
  1  2  1  0
  2  3  2  0
  3  4  1  0
  4  5  2  0
  5  6  1  0
  5  7  1  0
  7  8  2  0
  8  9  1  0
  9 10  2  0
  9 11  1  0
 11 12  1  0
 12 13  2  0
 13 14  1  0
 14 15  2  0
 15 16  1  0
 16 17  2  0
 17 18  1  0
 15 19  1  0
 19 20  1  0
 19 21  2  0
  8  2  1  0
 17 12  1  0
M  CHG  2  19   1  20  -1
M  END
>  <target>  (112) 
-4.7

$$$$

     RDKit          3D

  5  4  0  0  0  0  0  0  0  0999 V2000
   -2.5019   -0.3826   -0.1885 C   0  0  0  0  0  0  0  0  0  0  0  0
   -1.2303    0.4002   -0.4746 C   0  0  0  0  0  0  0  0  0  0  0  0
   -0.0100   -0.2597    0.1669 C   0  0  0  0  0  0  0  0  0  0  0  0
    1.2660    0.5302   -0.1231 C   0  0  0  0  0  0  0  0  0  0  0  0
    2.4825   -0.1230    0.5133 C   0  0  0  0  0  0  0  0  0  0  0  0
  1  2  1  0
  2  3  1  0
  3  4  1  0
  4  5  1  0
M  END
>  <target>  (113) 
-3.18

$$$$

     RDKit          3D

  7  7  0  0  0  0  0  0  0  0999 V2000
    0.2464   -1.2933   -0.2833 C   0  0  0  0  0  0  0  0  0  0  0  0
   -1.0907   -1.0122   -0.5632 C   0  0  0  0  0  0  0  0  0  0  0  0
   -1.5918    0.2725   -0.3500 C   0  0  0  0  0  0  0  0  0  0  0  0
   -0.7558    1.2758    0.1431 C   0  0  0  0  0  0  0  0  0  0  0  0
    0.5829    0.9965    0.4239 C   0  0  0  0  0  0  0  0  0  0  0  0
    1.0726   -0.2885    0.2075 C   0  0  0  0  0  0  0  0  0  0  0  0
    2.3731   -0.6059    0.4679 O   0  0  0  0  0  0  0  0  0  0  0  0
  1  2  2  0
  2  3  1  0
  3  4  2  0
  4  5  1  0
  5  6  2  0
  6  7  1  0
  6  1  1  0
M  END
>  <target>  (114) 
0.0

$$$$

     RDKit          3D

 15 17  0  0  0  0  0  0  0  0999 V2000
    4.5767    0.7414   -0.2147 N   0  0  0  0  0  0  0  0  0  0  0  0
    3.2904    0.2961    0.1132 C   0  0  0  0  0  0  0  0  0  0  0  0
    3.1171   -0.8948    0.8167 C   0  0  0  0  0  0  0  0  0  0  0  0
    1.8370   -1.4054    1.0494 C   0  0  0  0  0  0  0  0  0  0  0  0
    0.7033   -0.7539    0.5425 C   0  0  0  0  0  0  0  0  0  0  0  0
   -0.5912   -1.2508    0.7674 C   0  0  0  0  0  0  0  0  0  0  0  0
   -1.7228   -0.6042    0.2441 C   0  0  0  0  0  0  0  0  0  0  0  0
   -3.0180   -1.0982    0.4690 C   0  0  0  0  0  0  0  0  0  0  0  0
   -4.1324   -0.4449   -0.0592 C   0  0  0  0  0  0  0  0  0  0  0  0
   -3.9668    0.7091   -0.8187 C   0  0  0  0  0  0  0  0  0  0  0  0
   -2.6863    1.2121   -1.0513 C   0  0  0  0  0  0  0  0  0  0  0  0
   -1.5550    0.5666   -0.5262 C   0  0  0  0  0  0  0  0  0  0  0  0
   -0.2603    1.0615   -0.7512 C   0  0  0  0  0  0  0  0  0  0  0  0
    0.8712    0.4181   -0.2227 C   0  0  0  0  0  0  0  0  0  0  0  0
    2.1682    0.9144   -0.4452 C   0  0  0  0  0  0  0  0  0  0  0  0
  1  2  1  0
  2  3  2  0
  3  4  1  0
  4  5  2  0
  5  6  1  0
  6  7  2  0
  7  8  1  0
  8  9  2  0
  9 10  1  0
 10 11  2  0
 11 12  1  0
 12 13  2  0
 13 14  1  0
 14 15  2  0
 12  7  1  0
 14  5  1  0
 15  2  1  0
M  END
>  <target>  (115) 
-5.17

$$$$

     RDKit          3D

 13 14  0  0  0  0  0  0  0  0999 V2000
    3.1171   -0.2631    0.0298 C   0  0  0  0  0  0  0  0  0  0  0  0
    1.7208   -0.6007    0.1379 N   0  0  0  0  0  0  0  0  0  0  0  0
    1.2048   -1.8257    0.4713 C   0  0  0  0  0  0  0  0  0  0  0  0
   -0.1141   -1.8130    0.4850 N   0  0  0  0  0  0  0  0  0  0  0  0
   -0.4439   -0.5355    0.1486 C   0  0  0  0  0  0  0  0  0  0  0  0
   -1.7182   -0.0237    0.0286 N   0  0  0  0  0  0  0  0  0  0  0  0
   -2.8748   -0.8642    0.2678 C   0  0  0  0  0  0  0  0  0  0  0  0
   -1.8700    1.3130   -0.3259 C   0  0  0  0  0  0  0  0  0  0  0  0
   -2.9589    1.8716   -0.4608 O   0  0  0  0  0  0  0  0  0  0  0  0
   -0.7148    2.0457   -0.5363 N   0  0  0  0  0  0  0  0  0  0  0  0
    0.5855    1.6038   -0.4353 C   0  0  0  0  0  0  0  0  0  0  0  0
    1.5485    2.3329   -0.6422 O   0  0  0  0  0  0  0  0  0  0  0  0
    0.6626    0.2340   -0.0710 C   0  0  0  0  0  0  0  0  0  0  0  0
  1  2  1  0
  2  3  1  0
  3  4  2  0
  4  5  1  0
  5  6  1  0
  6  7  1  0
  6  8  1  0
  8  9  2  0
  8 10  1  0
 10 11  1  0
 11 12  2  0
 11 13  1  0
 13  2  1  0
 13  5  2  0
M  END
>  <target>  (116) 
-2.523

$$$$

     RDKit          3D

 10 11  0  0  0  0  0  0  0  0999 V2000
   -2.2157    0.7039    0.0455 C   0  0  0  0  0  0  0  0  0  0  0  0
   -2.2636   -0.6882    0.0358 C   0  0  0  0  0  0  0  0  0  0  0  0
   -1.0798   -1.4263    0.0087 C   0  0  0  0  0  0  0  0  0  0  0  0
    0.1656   -0.7731   -0.0089 C   0  0  0  0  0  0  0  0  0  0  0  0
    1.3830   -1.4584   -0.0362 C   0  0  0  0  0  0  0  0  0  0  0  0
    2.5996   -0.8648   -0.0537 N   0  0  0  0  0  0  0  0  0  0  0  0
    2.6097    0.4838   -0.0436 C   0  0  0  0  0  0  0  0  0  0  0  0
    1.4660    1.2667   -0.0169 C   0  0  0  0  0  0  0  0  0  0  0  0
    0.2168    0.6349    0.0009 C   0  0  0  0  0  0  0  0  0  0  0  0
   -0.9843    1.3628    0.0283 C   0  0  0  0  0  0  0  0  0  0  0  0
  1  2  2  0
  2  3  1  0
  3  4  2  0
  4  5  1  0
  5  6  2  0
  6  7  1  0
  7  8  2  0
  8  9  1  0
  9 10  2  0
 10  1  1  0
  9  4  1  0
M  END
>  <target>  (117) 
-1.45

$$$$

     RDKit          3D

 21 21  0  0  0  0  0  0  0  0999 V2000
    5.1210   -1.1874    1.4317 C   0  0  0  0  0  0  0  0  0  0  0  0
    4.4210   -0.0016    1.1086 O   0  0  0  0  0  0  0  0  0  0  0  0
    2.8429   -0.0806    0.7132 P   0  0  0  0  0  0  0  0  0  0  0  0
    2.1412    1.7081    0.3528 S   0  0  0  0  0  0  0  0  0  0  0  0
    2.9336   -1.0098   -0.6151 O   0  0  0  0  0  0  0  0  0  0  0  0
    3.6297   -0.5396   -1.7526 C   0  0  0  0  0  0  0  0  0  0  0  0
    1.8931   -1.2216    2.2143 S   0  0  0  0  0  0  0  0  0  0  0  0
    0.1239   -0.9253    1.9280 C   0  0  0  0  0  0  0  0  0  0  0  0
   -0.2986   -1.3002    0.5055 C   0  0  0  0  0  0  0  0  0  0  0  0
    0.2214   -2.2617   -0.0687 O   0  0  0  0  0  0  0  0  0  0  0  0
   -1.2687   -0.5051   -0.1263 N   0  0  0  0  0  0  0  0  0  0  0  0
   -1.5309   -0.7543   -1.5637 C   0  0  0  0  0  0  0  0  0  0  0  0
   -0.4779   -0.1019   -2.4631 C   0  0  0  0  0  0  0  0  0  0  0  0
   -2.9481   -0.4177   -2.0443 C   0  0  0  0  0  0  0  0  0  0  0  0
   -2.0087    0.4946    0.5610 C   0  0  0  0  0  0  0  0  0  0  0  0
   -1.9977    1.8234    0.1248 C   0  0  0  0  0  0  0  0  0  0  0  0
   -2.7131    2.8018    0.8205 C   0  0  0  0  0  0  0  0  0  0  0  0
   -3.4500    2.4510    1.9484 C   0  0  0  0  0  0  0  0  0  0  0  0
   -4.3224    3.6573    2.8076 Cl  0  0  0  0  0  0  0  0  0  0  0  0
   -3.4822    1.1288    2.3852 C   0  0  0  0  0  0  0  0  0  0  0  0
   -2.7626    0.1517    1.6923 C   0  0  0  0  0  0  0  0  0  0  0  0
  1  2  1  0
  2  3  1  0
  3  4  2  0
  3  5  1  0
  5  6  1  0
  3  7  1  0
  7  8  1  0
  8  9  1  0
  9 10  2  0
  9 11  1  0
 11 12  1  0
 12 13  1  0
 12 14  1  0
 11 15  1  0
 15 16  2  0
 16 17  1  0
 17 18  2  0
 18 19  1  0
 18 20  1  0
 20 21  2  0
 21 15  1  0
M  END
>  <target>  (118) 
-4.4319999999999995

$$$$

     RDKit          3D

 12 12  0  0  0  0  0  0  0  0999 V2000
   -5.0977    0.1591    0.6838 C   0  0  0  0  0  0  0  0  0  0  0  0
   -3.9426   -0.2672   -0.2081 C   0  0  0  0  0  0  0  0  0  0  0  0
   -2.5926    0.0715    0.4237 C   0  0  0  0  0  0  0  0  0  0  0  0
   -1.4334   -0.3589   -0.4766 C   0  0  0  0  0  0  0  0  0  0  0  0
   -0.0823   -0.0200    0.1555 C   0  0  0  0  0  0  0  0  0  0  0  0
    1.0758   -0.4515   -0.7467 C   0  0  0  0  0  0  0  0  0  0  0  0
    2.4133   -0.1218   -0.1325 C   0  0  0  0  0  0  0  0  0  0  0  0
    3.0186    1.1191   -0.3715 C   0  0  0  0  0  0  0  0  0  0  0  0
    4.2485    1.4299    0.2106 C   0  0  0  0  0  0  0  0  0  0  0  0
    4.8818    0.5061    1.0399 C   0  0  0  0  0  0  0  0  0  0  0  0
    4.2850   -0.7283    1.2895 C   0  0  0  0  0  0  0  0  0  0  0  0
    3.0551   -1.0408    0.7082 C   0  0  0  0  0  0  0  0  0  0  0  0
  1  2  1  0
  2  3  1  0
  3  4  1  0
  4  5  1  0
  5  6  1  0
  6  7  1  0
  7  8  2  0
  8  9  1  0
  9 10  2  0
 10 11  1  0
 11 12  2  0
 12  7  1  0
M  END
>  <target>  (119) 
-5.21

$$$$

     RDKit          3D

 13 14  0  0  0  0  0  0  0  0999 V2000
   -0.6848    2.7073    0.6595 Cl  0  0  0  0  0  0  0  0  0  0  0  0
   -1.4689    1.2096    0.2863 C   0  0  0  0  0  0  0  0  0  0  0  0
   -2.8688    1.2044    0.2679 C   0  0  0  0  0  0  0  0  0  0  0  0
   -3.5634    0.0349   -0.0377 C   0  0  0  0  0  0  0  0  0  0  0  0
   -2.8611   -1.1314   -0.3267 C   0  0  0  0  0  0  0  0  0  0  0  0
   -1.4641   -1.1282   -0.3091 C   0  0  0  0  0  0  0  0  0  0  0  0
   -0.7409    0.0398   -0.0013 C   0  0  0  0  0  0  0  0  0  0  0  0
    0.7279   -0.0144    0.0059 C   0  0  0  0  0  0  0  0  0  0  0  0
    1.4407   -0.0651    1.2141 C   0  0  0  0  0  0  0  0  0  0  0  0
    2.8360   -0.1281    1.2184 C   0  0  0  0  0  0  0  0  0  0  0  0
    3.5371   -0.1440    0.0146 C   0  0  0  0  0  0  0  0  0  0  0  0
    2.8450   -0.0971   -1.1937 C   0  0  0  0  0  0  0  0  0  0  0  0
    1.4496   -0.0340   -1.1979 C   0  0  0  0  0  0  0  0  0  0  0  0
  1  2  1  0
  2  3  2  0
  3  4  1  0
  4  5  2  0
  5  6  1  0
  6  7  2  0
  7  8  1  0
  8  9  2  0
  9 10  1  0
 10 11  2  0
 11 12  1  0
 12 13  2  0
  7  2  1  0
 13  8  1  0
M  END
>  <target>  (120) 
-4.54

$$$$

     RDKit          3D

  6  5  0  0  0  0  0  0  0  0999 V2000
    2.5282   -0.6480    0.0652 C   0  0  0  0  0  0  0  0  0  0  0  0
    1.0941   -0.5111   -0.4231 C   0  0  0  0  0  0  0  0  0  0  0  0
    0.2595    0.3466    0.5309 C   0  0  0  0  0  0  0  0  0  0  0  0
   -1.1588    0.5435    0.0458 C   0  0  0  0  0  0  0  0  0  0  0  0
   -1.5892    1.7330   -0.4059 C   0  0  0  0  0  0  0  0  0  0  0  0
   -2.0759   -0.6447    0.1277 C   0  0  0  0  0  0  0  0  0  0  0  0
  1  2  1  0
  2  3  1  0
  3  4  1  0
  4  5  2  0
  4  6  1  0
M  END
>  <target>  (121) 
-3.03

$$$$

     RDKit          3D

  8  7  0  0  0  0  0  0  0  0999 V2000
   -1.6852   -0.7958    1.1388 C   0  0  0  0  0  0  0  0  0  0  0  0
   -1.1714   -0.5766   -0.2867 C   0  0  0  0  0  0  0  0  0  0  0  0
   -2.3342   -0.1440   -1.1900 C   0  0  0  0  0  0  0  0  0  0  0  0
    0.0432    0.4018   -0.3736 C   0  0  0  0  0  0  0  0  0  0  0  0
   -0.3285    1.8223    0.0874 C   0  0  0  0  0  0  0  0  0  0  0  0
    1.3148   -0.1117    0.3801 C   0  0  0  0  0  0  0  0  0  0  0  0
    2.5232    0.8129    0.1686 C   0  0  0  0  0  0  0  0  0  0  0  0
    1.7176   -1.5306   -0.0421 C   0  0  0  0  0  0  0  0  0  0  0  0
  1  2  1  0
  2  3  1  0
  2  4  1  0
  4  5  1  0
  4  6  1  0
  6  7  1  0
  6  8  1  0
M  END
>  <target>  (122) 
-4.8

$$$$

     RDKit          3D

 11 11  0  0  0  0  0  0  0  0999 V2000
   -2.2605   -2.1886   -0.1084 Cl  0  0  0  0  0  0  0  0  0  0  0  0
   -1.0339   -0.9699   -0.0489 C   0  0  0  0  0  0  0  0  0  0  0  0
    0.2906   -1.4074   -0.0194 C   0  0  0  0  0  0  0  0  0  0  0  0
    1.3337   -0.4821    0.0290 C   0  0  0  0  0  0  0  0  0  0  0  0
    2.9430   -1.1165    0.0629 Cl  0  0  0  0  0  0  0  0  0  0  0  0
    1.0616    0.8940    0.0482 C   0  0  0  0  0  0  0  0  0  0  0  0
    2.3734    2.0336    0.1086 Cl  0  0  0  0  0  0  0  0  0  0  0  0
   -0.2760    1.3368    0.0184 C   0  0  0  0  0  0  0  0  0  0  0  0
   -0.6283    3.0429    0.0419 Cl  0  0  0  0  0  0  0  0  0  0  0  0
   -1.3290    0.4014   -0.0304 C   0  0  0  0  0  0  0  0  0  0  0  0
   -2.9852    0.9295   -0.0678 Cl  0  0  0  0  0  0  0  0  0  0  0  0
  1  2  1  0
  2  3  2  0
  3  4  1  0
  4  5  1  0
  4  6  2  0
  6  7  1  0
  6  8  1  0
  8  9  1  0
  8 10  2  0
 10 11  1  0
 10  2  1  0
M  END
>  <target>  (123) 
-5.65

$$$$

     RDKit          3D

 10 10  0  0  0  0  0  0  0  0999 V2000
   -2.1488   -1.7632   -0.1364 O   0  0  0  0  0  0  0  0  0  0  0  0
   -1.2308   -0.7609   -0.0339 C   0  0  0  0  0  0  0  0  0  0  0  0
   -1.6186    0.5509    0.2312 C   0  0  0  0  0  0  0  0  0  0  0  0
   -0.6496    1.5517    0.3292 C   0  0  0  0  0  0  0  0  0  0  0  0
    0.7009    1.2376    0.1622 C   0  0  0  0  0  0  0  0  0  0  0  0
    1.0742   -0.0883   -0.1041 C   0  0  0  0  0  0  0  0  0  0  0  0
    0.1081   -1.0952   -0.2035 C   0  0  0  0  0  0  0  0  0  0  0  0
    2.4920   -0.4220   -0.2802 N   0  0  0  0  0  0  0  0  0  0  0  0
    2.7846   -1.6031   -0.5142 O   0  0  0  0  0  0  0  0  0  0  0  0
    3.3161    0.4991   -0.1843 O   0  0  0  0  0  0  0  0  0  0  0  0
  1  2  1  0
  2  3  2  0
  3  4  1  0
  4  5  2  0
  5  6  1  0
  6  7  2  0
  6  8  1  0
  8  9  1  0
  8 10  2  0
  7  2  1  0
M  CHG  2   8   1   9  -1
M  END
>  <target>  (124) 
-1.01

$$$$

     RDKit          3D

 10  9  0  0  0  0  0  0  0  0999 V2000
   -4.6761    0.3478    0.2489 C   0  0  0  0  0  0  0  0  0  0  0  0
   -4.1295   -0.1211   -1.0906 C   0  0  0  0  0  0  0  0  0  0  0  0
   -2.7637   -0.8036   -0.9883 C   0  0  0  0  0  0  0  0  0  0  0  0
   -1.6472    0.1394   -0.5344 C   0  0  0  0  0  0  0  0  0  0  0  0
   -0.2877   -0.5634   -0.5514 C   0  0  0  0  0  0  0  0  0  0  0  0
    0.8300    0.3758   -0.0950 C   0  0  0  0  0  0  0  0  0  0  0  0
    2.1893   -0.3265   -0.1126 C   0  0  0  0  0  0  0  0  0  0  0  0
    3.3059    0.6142    0.3448 C   0  0  0  0  0  0  0  0  0  0  0  0
    4.6385   -0.0783    0.3401 C   0  0  0  0  0  0  0  0  0  0  0  0
    5.6757    0.2949   -0.4197 C   0  0  0  0  0  0  0  0  0  0  0  0
  1  2  1  0
  2  3  1  0
  3  4  1  0
  4  5  1  0
  5  6  1  0
  6  7  1  0
  7  8  1  0
  8  9  1  0
  9 10  2  0
M  END
>  <target>  (125) 
-5.51

$$$$

     RDKit          3D

 15 14  0  0  0  0  0  0  0  0999 V2000
    3.9326    0.2394   -0.6417 C   0  0  0  0  0  0  0  0  0  0  0  0
    2.6108    0.5109    0.0076 C   0  0  0  0  0  0  0  0  0  0  0  0
    2.1616    1.6270    0.2272 O   0  0  0  0  0  0  0  0  0  0  0  0
    1.9878   -0.6617    0.3078 O   0  0  0  0  0  0  0  0  0  0  0  0
    0.6992   -0.5269    0.9425 C   0  0  0  0  0  0  0  0  0  0  0  0
   -0.4003   -0.2979   -0.1093 C   0  0  0  0  0  0  0  0  0  0  0  0
   -1.7483    0.0675    0.5298 C   0  0  0  0  0  0  0  0  0  0  0  0
   -1.6736    1.3359    1.2052 O   0  0  0  0  0  0  0  0  0  0  0  0
   -1.8235    2.4302    0.4083 C   0  0  0  0  0  0  0  0  0  0  0  0
   -2.0332    2.4037   -0.7957 O   0  0  0  0  0  0  0  0  0  0  0  0
   -1.6870    3.6805    1.2210 C   0  0  0  0  0  0  0  0  0  0  0  0
   -0.5028   -1.4105   -1.0368 O   0  0  0  0  0  0  0  0  0  0  0  0
   -0.9268   -2.6166   -0.5813 C   0  0  0  0  0  0  0  0  0  0  0  0
   -1.2631   -2.8646    0.5667 O   0  0  0  0  0  0  0  0  0  0  0  0
   -0.9307   -3.6139   -1.6988 C   0  0  0  0  0  0  0  0  0  0  0  0
  1  2  1  0
  2  3  2  0
  2  4  1  0
  4  5  1  0
  5  6  1  0
  6  7  1  0
  7  8  1  0
  8  9  1  0
  9 10  2  0
  9 11  1  0
  6 12  1  0
 12 13  1  0
 13 14  2  0
 13 15  1  0
M  END
>  <target>  (126) 
-0.6

$$$$

     RDKit          3D

 15 15  0  0  0  0  0  0  0  0999 V2000
    4.8015   -0.6550    1.5439 C   0  0  0  0  0  0  0  0  0  0  0  0
    4.0247   -0.5346    0.2425 C   0  0  0  0  0  0  0  0  0  0  0  0
    2.5394   -0.2795    0.4983 C   0  0  0  0  0  0  0  0  0  0  0  0
    1.7630   -0.1583   -0.8161 C   0  0  0  0  0  0  0  0  0  0  0  0
    0.3006    0.0805   -0.5827 C   0  0  0  0  0  0  0  0  0  0  0  0
   -0.6527   -0.9160   -0.5112 C   0  0  0  0  0  0  0  0  0  0  0  0
   -0.3104   -2.3655   -0.6925 C   0  0  0  0  0  0  0  0  0  0  0  0
   -1.9607   -0.6504   -0.2842 N   0  0  0  0  0  0  0  0  0  0  0  0
   -2.3543    0.6238   -0.1111 C   0  0  0  0  0  0  0  0  0  0  0  0
   -1.4917    1.6478   -0.1543 N   0  0  0  0  0  0  0  0  0  0  0  0
   -0.2119    1.3402   -0.3850 C   0  0  0  0  0  0  0  0  0  0  0  0
    0.5955    2.4339   -0.4090 O   0  0  0  0  0  0  0  0  0  0  0  0
   -3.7095    0.8898    0.0968 N   0  0  0  0  0  0  0  0  0  0  0  0
   -3.9826    2.1578    0.7520 C   0  0  0  0  0  0  0  0  0  0  0  0
   -4.4854   -0.2577    0.5394 C   0  0  0  0  0  0  0  0  0  0  0  0
  1  2  1  0
  2  3  1  0
  3  4  1  0
  4  5  1  0
  5  6  2  0
  6  7  1  0
  6  8  1  0
  8  9  2  0
  9 10  1  0
 10 11  2  0
 11 12  1  0
  9 13  1  0
 13 14  1  0
 13 15  1  0
 11  5  1  0
M  END
>  <target>  (127) 
-2.24

$$$$

     RDKit          3D

 29 31  0  0  0  0  0  0  0  0999 V2000
    4.3342   -0.4061    0.7213 C   0  0  0  0  0  0  0  0  0  0  0  0
    3.2467    0.6194    0.5010 C   0  0  0  0  0  0  0  0  0  0  0  0
    3.7537    1.8829   -0.1552 C   0  0  0  0  0  0  0  0  0  0  0  0
    2.1194    0.6680    1.5225 C   0  0  0  0  0  0  0  0  0  0  0  0
    1.5148    1.9420    1.9441 C   0  0  0  0  0  0  0  0  0  0  0  0
    0.2190    2.1849    2.1965 C   0  0  0  0  0  0  0  0  0  0  0  0
   -0.9915    0.9656    2.0349 Cl  0  0  0  0  0  0  0  0  0  0  0  0
   -0.2913    3.7570    2.6986 Cl  0  0  0  0  0  0  0  0  0  0  0  0
    1.8477    0.1648    0.1174 C   0  0  0  0  0  0  0  0  0  0  0  0
    1.4863   -1.2587   -0.0937 C   0  0  0  0  0  0  0  0  0  0  0  0
    1.6231   -2.1228    0.7596 O   0  0  0  0  0  0  0  0  0  0  0  0
    0.9668   -1.4480   -1.3308 O   0  0  0  0  0  0  0  0  0  0  0  0
    0.3226   -2.7242   -1.5270 C   0  0  0  0  0  0  0  0  0  0  0  0
    0.2842   -3.0270   -2.9740 C   0  0  0  0  0  0  0  0  0  0  0  0
    0.2673   -3.2717   -4.1101 N   0  0  0  0  0  0  0  0  0  0  0  0
   -1.0833   -2.6593   -0.9423 C   0  0  0  0  0  0  0  0  0  0  0  0
   -1.6468   -3.7651   -0.2857 C   0  0  0  0  0  0  0  0  0  0  0  0
   -2.9215   -3.6746    0.2824 C   0  0  0  0  0  0  0  0  0  0  0  0
   -3.6302   -2.4771    0.2186 C   0  0  0  0  0  0  0  0  0  0  0  0
   -4.8376   -2.4048    0.7969 F   0  0  0  0  0  0  0  0  0  0  0  0
   -3.0850   -1.3656   -0.4150 C   0  0  0  0  0  0  0  0  0  0  0  0
   -3.8111   -0.1928   -0.4201 O   0  0  0  0  0  0  0  0  0  0  0  0
   -3.0757    0.9592   -0.2457 C   0  0  0  0  0  0  0  0  0  0  0  0
   -2.3592    1.1893    0.9322 C   0  0  0  0  0  0  0  0  0  0  0  0
   -1.5775    2.3381    1.0502 C   0  0  0  0  0  0  0  0  0  0  0  0
   -1.5273    3.2554   -0.0002 C   0  0  0  0  0  0  0  0  0  0  0  0
   -2.2734    3.0378   -1.1606 C   0  0  0  0  0  0  0  0  0  0  0  0
   -3.0601    1.8928   -1.2808 C   0  0  0  0  0  0  0  0  0  0  0  0
   -1.8352   -1.4741   -1.0343 C   0  0  0  0  0  0  0  0  0  0  0  0
  1  2  1  0
  2  3  1  0
  2  4  1  0
  4  5  1  0
  5  6  2  3
  6  7  1  0
  6  8  1  0
  4  9  1  0
  9 10  1  0
 10 11  2  0
 10 12  1  0
 12 13  1  0
 13 14  1  0
 14 15  3  0
 13 16  1  0
 16 17  2  0
 17 18  1  0
 18 19  2  0
 19 20  1  0
 19 21  1  0
 21 22  1  0
 22 23  1  0
 23 24  2  0
 24 25  1  0
 25 26  2  0
 26 27  1  0
 27 28  2  0
 21 29  2  0
  9  2  1  0
 29 16  1  0
 28 23  1  0
M  END
>  <target>  (128) 
-7.337000000000001

$$$$

     RDKit          3D

  6  6  0  0  0  0  0  0  0  0999 V2000
    0.0795    1.1800    0.0527 C   0  0  0  0  0  0  0  0  0  0  0  0
   -1.1649    0.5617   -0.0107 C   0  0  0  0  0  0  0  0  0  0  0  0
   -1.2070   -0.8221   -0.0710 C   0  0  0  0  0  0  0  0  0  0  0  0
   -0.1083   -1.6081   -0.0718 N   0  0  0  0  0  0  0  0  0  0  0  0
    1.0857   -0.9793   -0.0094 C   0  0  0  0  0  0  0  0  0  0  0  0
    1.2295    0.3976    0.0536 C   0  0  0  0  0  0  0  0  0  0  0  0
  1  2  2  0
  2  3  1  0
  3  4  2  0
  4  5  1  0
  5  6  2  0
  6  1  1  0
M  END
>  <target>  (129) 
0.76

$$$$

     RDKit          3D

  8  7  0  0  0  0  0  0  0  0999 V2000
   -3.7295    0.7479    0.4374 C   0  0  0  0  0  0  0  0  0  0  0  0
   -2.5099   -0.0480    0.8738 C   0  0  0  0  0  0  0  0  0  0  0  0
   -1.2511    0.4060    0.1352 C   0  0  0  0  0  0  0  0  0  0  0  0
   -0.0266   -0.3970    0.5772 C   0  0  0  0  0  0  0  0  0  0  0  0
    1.2339    0.0574   -0.1624 C   0  0  0  0  0  0  0  0  0  0  0  0
    2.4583   -0.7502    0.2815 C   0  0  0  0  0  0  0  0  0  0  0  0
    3.7233   -0.3793   -0.4768 C   0  0  0  0  0  0  0  0  0  0  0  0
    4.4197    1.3414    0.1087 Br  0  0  0  0  0  0  0  0  0  0  0  0
  1  2  1  0
  2  3  1  0
  3  4  1  0
  4  5  1  0
  5  6  1  0
  6  7  1  0
  7  8  1  0
M  END
>  <target>  (130) 
-4.43

$$$$

     RDKit          3D

  8  8  0  0  0  0  0  0  0  0999 V2000
   -0.8841   -1.7517   -0.0607 C   0  0  0  0  0  0  0  0  0  0  0  0
    0.1191   -0.6339   -0.0391 C   0  0  0  0  0  0  0  0  0  0  0  0
    1.4855   -0.9266   -0.1084 C   0  0  0  0  0  0  0  0  0  0  0  0
    2.3972    0.1167   -0.0873 C   0  0  0  0  0  0  0  0  0  0  0  0
    2.0486    1.4154   -0.0031 N   0  0  0  0  0  0  0  0  0  0  0  0
    0.7251    1.6803    0.0630 C   0  0  0  0  0  0  0  0  0  0  0  0
   -0.2769    0.7110    0.0495 C   0  0  0  0  0  0  0  0  0  0  0  0
   -1.7173    1.1186    0.1279 C   0  0  0  0  0  0  0  0  0  0  0  0
  1  2  1  0
  2  3  2  0
  3  4  1  0
  4  5  2  0
  5  6  1  0
  6  7  2  0
  7  8  1  0
  7  2  1  0
M  END
>  <target>  (131) 
0.36

$$$$

     RDKit          3D

 27 30  0  0  0  0  0  0  0  0999 V2000
    2.7464   -0.5195   -1.5137 C   0  0  0  0  0  0  0  0  0  0  0  0
    1.9615    0.0029   -0.2875 C   0  0  0  0  0  0  0  0  0  0  0  0
    1.1167    1.2117   -0.7651 C   0  0  0  0  0  0  0  0  0  0  0  0
   -0.1448    1.4958    0.0642 C   0  0  0  0  0  0  0  0  0  0  0  0
   -0.7369    2.6723   -0.4845 O   0  0  0  0  0  0  0  0  0  0  0  0
   -1.1238    0.2790    0.1700 C   0  0  0  0  0  0  0  0  0  0  0  0
   -1.3572    0.1341    1.5319 F   0  0  0  0  0  0  0  0  0  0  0  0
   -0.4103   -1.0320   -0.2656 C   0  0  0  0  0  0  0  0  0  0  0  0
   -1.2473   -2.2524    0.1342 C   0  0  0  0  0  0  0  0  0  0  0  0
   -2.6082   -2.2080   -0.5480 C   0  0  0  0  0  0  0  0  0  0  0  0
   -3.3497   -0.9207   -0.2717 C   0  0  0  0  0  0  0  0  0  0  0  0
   -4.6379   -0.9861    0.1125 C   0  0  0  0  0  0  0  0  0  0  0  0
   -5.4690    0.2245    0.2914 C   0  0  0  0  0  0  0  0  0  0  0  0
   -6.6443    0.1063    0.6309 O   0  0  0  0  0  0  0  0  0  0  0  0
   -4.8574    1.5552   -0.0464 C   0  0  0  0  0  0  0  0  0  0  0  0
   -3.3612    1.5519    0.2391 C   0  0  0  0  0  0  0  0  0  0  0  0
   -2.5724    0.4057   -0.4711 C   0  0  0  0  0  0  0  0  0  0  0  0
   -2.5133    0.6768   -1.9916 C   0  0  0  0  0  0  0  0  0  0  0  0
    1.0438   -1.1537    0.2274 C   0  0  0  0  0  0  0  0  0  0  0  0
    1.2606   -1.2123    1.7409 C   0  0  0  0  0  0  0  0  0  0  0  0
    2.7365   -0.8652    1.8841 C   0  0  0  0  0  0  0  0  0  0  0  0
    2.9105    0.3181    0.9294 C   0  0  0  0  0  0  0  0  0  0  0  0
    2.4389    1.4800    1.6367 O   0  0  0  0  0  0  0  0  0  0  0  0
    4.3693    0.6513    0.5654 C   0  0  0  0  0  0  0  0  0  0  0  0
    4.6684    1.8034    0.2195 O   0  0  0  0  0  0  0  0  0  0  0  0
    5.4388   -0.4269    0.6671 C   0  0  0  0  0  0  0  0  0  0  0  0
    6.6460   -0.0214    0.0379 O   0  0  0  0  0  0  0  0  0  0  0  0
  1  2  1  0
  2  3  1  0
  3  4  1  0
  4  5  1  0
  4  6  1  0
  6  7  1  0
  6  8  1  0
  8  9  1  0
  9 10  1  0
 10 11  1  0
 11 12  2  0
 12 13  1  0
 13 14  2  0
 13 15  1  0
 15 16  1  0
 16 17  1  0
 17 18  1  0
  8 19  1  0
 19 20  1  0
 20 21  1  0
 21 22  1  0
 22 23  1  0
 22 24  1  0
 24 25  2  0
 24 26  1  0
 26 27  1  0
 17  6  1  0
 17 11  1  0
 19  2  1  0
 22  2  1  0
M  END
>  <target>  (132) 
-3.43

$$$$

     RDKit          3D

 15 15  0  0  0  0  0  0  0  0999 V2000
   -3.0657    0.9610    1.8872 C   0  0  0  0  0  0  0  0  0  0  0  0
   -1.9706    0.6684    0.8765 C   0  0  0  0  0  0  0  0  0  0  0  0
   -2.6780    0.6080   -0.8008 S   0  0  0  0  0  0  0  0  0  0  0  0
   -1.1453    0.4117   -1.7684 C   0  0  0  0  0  0  0  0  0  0  0  0
   -0.3950   -0.8645   -1.4873 C   0  0  0  0  0  0  0  0  0  0  0  0
   -0.9965   -2.1088   -1.7422 C   0  0  0  0  0  0  0  0  0  0  0  0
   -0.3086   -3.3021   -1.5041 C   0  0  0  0  0  0  0  0  0  0  0  0
    0.9978   -3.2742   -1.0195 C   0  0  0  0  0  0  0  0  0  0  0  0
    1.6194   -2.0531   -0.7719 C   0  0  0  0  0  0  0  0  0  0  0  0
    0.9179   -0.8642   -0.9937 C   0  0  0  0  0  0  0  0  0  0  0  0
    1.5916    0.3505   -0.8040 O   0  0  0  0  0  0  0  0  0  0  0  0
    1.7380    0.7256    0.5219 C   0  0  0  0  0  0  0  0  0  0  0  0
    1.3012    0.1291    1.4961 O   0  0  0  0  0  0  0  0  0  0  0  0
    2.4335    1.9015    0.5797 N   0  0  0  0  0  0  0  0  0  0  0  0
    2.6278    2.6124    1.8137 C   0  0  0  0  0  0  0  0  0  0  0  0
  1  2  1  0
  2  3  1  0
  3  4  1  0
  4  5  1  0
  5  6  2  0
  6  7  1  0
  7  8  2  0
  8  9  1  0
  9 10  2  0
 10 11  1  0
 11 12  1  0
 12 13  2  0
 12 14  1  0
 14 15  1  0
 10  5  1  0
M  END
>  <target>  (133) 
-2.09

$$$$

     RDKit          3D

 11 10  0  0  0  0  0  0  0  0999 V2000
   -3.5436   -1.1063   -0.6647 C   0  0  0  0  0  0  0  0  0  0  0  0
   -3.4241    0.0292    0.3344 C   0  0  0  0  0  0  0  0  0  0  0  0
   -2.0419    0.3319    0.5755 O   0  0  0  0  0  0  0  0  0  0  0  0
   -1.4620    1.1971   -0.3021 C   0  0  0  0  0  0  0  0  0  0  0  0
   -2.0349    1.7640   -1.2235 O   0  0  0  0  0  0  0  0  0  0  0  0
   -0.0190    1.3958    0.0314 C   0  0  0  0  0  0  0  0  0  0  0  0
    0.8242    0.2128   -0.3214 C   0  0  0  0  0  0  0  0  0  0  0  0
    0.4460   -0.7868   -0.9145 O   0  0  0  0  0  0  0  0  0  0  0  0
    2.1025    0.4239    0.1102 O   0  0  0  0  0  0  0  0  0  0  0  0
    3.0083   -0.6472   -0.1852 C   0  0  0  0  0  0  0  0  0  0  0  0
    4.3755   -0.2726    0.3526 C   0  0  0  0  0  0  0  0  0  0  0  0
  1  2  1  0
  2  3  1  0
  3  4  1  0
  4  5  2  0
  4  6  1  0
  6  7  1  0
  7  8  2  0
  7  9  1  0
  9 10  1  0
 10 11  1  0
M  END
>  <target>  (134) 
-0.82

$$$$

     RDKit          3D

 10 10  0  0  0  0  0  0  0  0999 V2000
    3.5517   -0.6875    0.4224 C   0  0  0  0  0  0  0  0  0  0  0  0
    2.1038   -0.3141    0.2894 C   0  0  0  0  0  0  0  0  0  0  0  0
    1.2670   -0.3071    1.3415 C   0  0  0  0  0  0  0  0  0  0  0  0
   -0.1978    0.0182    1.2420 C   0  0  0  0  0  0  0  0  0  0  0  0
   -0.7353    0.0393   -0.2064 C   0  0  0  0  0  0  0  0  0  0  0  0
    0.2785    0.7585   -1.1158 C   0  0  0  0  0  0  0  0  0  0  0  0
    1.6396    0.0550   -1.0971 C   0  0  0  0  0  0  0  0  0  0  0  0
   -2.1616    0.5896   -0.2539 C   0  0  0  0  0  0  0  0  0  0  0  0
   -3.2264   -0.3242    0.3004 C   0  0  0  0  0  0  0  0  0  0  0  0
   -2.5040    1.7851   -0.7649 C   0  0  0  0  0  0  0  0  0  0  0  0
  1  2  1  0
  2  3  2  0
  3  4  1  0
  4  5  1  0
  5  6  1  0
  6  7  1  0
  5  8  1  0
  8  9  1  0
  8 10  2  0
  7  2  1  0
M  END
>  <target>  (135) 
-4.26

$$$$

     RDKit          3D

  9 10  0  0  0  0  0  0  0  0999 V2000
   -2.1782    0.1848   -0.1394 C   0  0  0  0  0  0  0  0  0  0  0  0
   -1.2537    1.2753    0.4212 C   0  0  0  0  0  0  0  0  0  0  0  0
    0.0929    0.6780    0.1579 C   0  0  0  0  0  0  0  0  0  0  0  0
    1.3240    1.3112    0.1666 C   0  0  0  0  0  0  0  0  0  0  0  0
    2.4653    0.5422   -0.0712 C   0  0  0  0  0  0  0  0  0  0  0  0
    2.3628   -0.8392   -0.3000 C   0  0  0  0  0  0  0  0  0  0  0  0
    1.1174   -1.4713   -0.2943 C   0  0  0  0  0  0  0  0  0  0  0  0
   -0.0093   -0.6988   -0.0702 C   0  0  0  0  0  0  0  0  0  0  0  0
   -1.4337   -1.1488    0.0196 C   0  0  0  0  0  0  0  0  0  0  0  0
  1  2  1  0
  2  3  1  0
  3  4  2  0
  4  5  1  0
  5  6  2  0
  6  7  1  0
  7  8  2  0
  8  9  1  0
  9  1  1  0
  8  3  1  0
M  END
>  <target>  (136) 
-3.04

$$$$

     RDKit          3D

 11 11  0  0  0  0  0  0  0  0999 V2000
   -1.5965    0.8646   -1.3956 C   0  0  0  0  0  0  0  0  0  0  0  0
   -1.3243    0.0206   -0.1317 C   0  0  0  0  0  0  0  0  0  0  0  0
   -2.0123   -1.3476   -0.3395 C   0  0  0  0  0  0  0  0  0  0  0  0
   -2.0013    0.6918    1.0829 C   0  0  0  0  0  0  0  0  0  0  0  0
    0.1926   -0.0758    0.1093 C   0  0  0  0  0  0  0  0  0  0  0  0
    0.8800   -1.3017    0.1361 C   0  0  0  0  0  0  0  0  0  0  0  0
    2.2604   -1.3552    0.3578 C   0  0  0  0  0  0  0  0  0  0  0  0
    2.9755   -0.1843    0.5563 C   0  0  0  0  0  0  0  0  0  0  0  0
    4.3180   -0.2839    0.7686 O   0  0  0  0  0  0  0  0  0  0  0  0
    2.3324    1.0446    0.5370 C   0  0  0  0  0  0  0  0  0  0  0  0
    0.9523    1.0948    0.3150 C   0  0  0  0  0  0  0  0  0  0  0  0
  1  2  1  0
  2  3  1  0
  2  4  1  0
  2  5  1  0
  5  6  2  0
  6  7  1  0
  7  8  2  0
  8  9  1  0
  8 10  1  0
 10 11  2  0
 11  5  1  0
M  END
>  <target>  (137) 
-2.41

$$$$

     RDKit          3D

 11 12  0  0  0  0  0  0  0  0999 V2000
    3.5009    0.4270   -0.4176 O   0  0  0  0  0  0  0  0  0  0  0  0
    2.2835    0.2785   -0.3818 C   0  0  0  0  0  0  0  0  0  0  0  0
    1.4422    1.3415   -0.3069 N   0  0  0  0  0  0  0  0  0  0  0  0
    0.0772    1.2939   -0.2617 C   0  0  0  0  0  0  0  0  0  0  0  0
   -0.5961    2.3172   -0.1943 O   0  0  0  0  0  0  0  0  0  0  0  0
   -0.5453   -0.0665   -0.2986 C   0  0  0  0  0  0  0  0  0  0  0  0
   -1.8424   -0.2601    0.4890 C   0  0  0  0  0  0  0  0  0  0  0  0
   -1.8943   -0.1956   -1.0084 C   0  0  0  0  0  0  0  0  0  0  0  0
    0.3825   -1.2378   -0.3812 C   0  0  0  0  0  0  0  0  0  0  0  0
   -0.0281   -2.3934   -0.4167 O   0  0  0  0  0  0  0  0  0  0  0  0
    1.7192   -0.9559   -0.4154 N   0  0  0  0  0  0  0  0  0  0  0  0
  1  2  2  0
  2  3  1  0
  3  4  1  0
  4  5  2  0
  4  6  1  0
  6  7  1  0
  7  8  1  0
  6  9  1  0
  9 10  2  0
  9 11  1  0
  8  6  1  0
 11  2  1  0
M  END
>  <target>  (138) 
-1.886

$$$$

     RDKit          3D

  8  8  0  0  0  0  0  0  0  0999 V2000
    3.0363   -0.6189    0.0748 Cl  0  0  0  0  0  0  0  0  0  0  0  0
    1.3578   -0.2400    0.0339 C   0  0  0  0  0  0  0  0  0  0  0  0
    0.9517    1.0944    0.0388 C   0  0  0  0  0  0  0  0  0  0  0  0
   -0.4082    1.4053    0.0057 C   0  0  0  0  0  0  0  0  0  0  0  0
   -1.3566    0.3815   -0.0322 C   0  0  0  0  0  0  0  0  0  0  0  0
   -0.9393   -0.9510   -0.0368 C   0  0  0  0  0  0  0  0  0  0  0  0
   -2.3542   -2.4735   -0.0933 I   0  0  0  0  0  0  0  0  0  0  0  0
    0.4182   -1.2690   -0.0038 C   0  0  0  0  0  0  0  0  0  0  0  0
  1  2  1  0
  2  3  2  0
  3  4  1  0
  4  5  2  0
  5  6  1  0
  6  7  1  0
  6  8  2  0
  8  2  1  0
M  END
>  <target>  (139) 
-3.55

$$$$

     RDKit          3D

 11 12  0  0  0  0  0  0  0  0999 V2000
   -2.1047    2.8563   -0.0573 Br  0  0  0  0  0  0  0  0  0  0  0  0
   -1.5217    1.0418   -0.0955 C   0  0  0  0  0  0  0  0  0  0  0  0
   -2.5202    0.0727   -0.2454 C   0  0  0  0  0  0  0  0  0  0  0  0
   -2.1825   -1.2749   -0.2832 C   0  0  0  0  0  0  0  0  0  0  0  0
   -0.8473   -1.6566   -0.1713 C   0  0  0  0  0  0  0  0  0  0  0  0
    0.1699   -0.7002   -0.0202 C   0  0  0  0  0  0  0  0  0  0  0  0
    1.5088   -1.1112    0.0905 C   0  0  0  0  0  0  0  0  0  0  0  0
    2.5364   -0.1818    0.2413 C   0  0  0  0  0  0  0  0  0  0  0  0
    2.2387    1.1732    0.2834 C   0  0  0  0  0  0  0  0  0  0  0  0
    0.9127    1.5989    0.1747 C   0  0  0  0  0  0  0  0  0  0  0  0
   -0.1544    0.6797    0.0206 C   0  0  0  0  0  0  0  0  0  0  0  0
  1  2  1  0
  2  3  2  0
  3  4  1  0
  4  5  2  0
  5  6  1  0
  6  7  2  0
  7  8  1  0
  8  9  2  0
  9 10  1  0
 10 11  2  0
 11  2  1  0
 11  6  1  0
M  END
>  <target>  (140) 
-4.35

$$$$

     RDKit          3D

  5  4  0  0  0  0  0  0  0  0999 V2000
   -2.2701    0.3770   -0.2204 C   0  0  0  0  0  0  0  0  0  0  0  0
   -1.2363   -0.6620    0.1851 C   0  0  0  0  0  0  0  0  0  0  0  0
    0.1321   -0.2972   -0.3138 C   0  0  0  0  0  0  0  0  0  0  0  0
    1.1815   -0.0569    0.4873 C   0  0  0  0  0  0  0  0  0  0  0  0
    2.5452    0.3002   -0.0080 C   0  0  0  0  0  0  0  0  0  0  0  0
  1  2  1  0
  2  3  1  0
  3  4  2  0
  4  5  1  0
M  END
>  <target>  (141) 
-2.54

$$$$

     RDKit          3D

  8  8  0  0  0  0  0  0  0  0999 V2000
    2.2914   -1.2596    0.3038 C   0  0  0  0  0  0  0  0  0  0  0  0
    1.1249   -0.3507    0.0583 C   0  0  0  0  0  0  0  0  0  0  0  0
    1.3363    0.9637   -0.3438 C   0  0  0  0  0  0  0  0  0  0  0  0
    0.2331    1.7809   -0.5632 C   0  0  0  0  0  0  0  0  0  0  0  0
   -1.0446    1.2655   -0.3759 C   0  0  0  0  0  0  0  0  0  0  0  0
   -1.1785   -0.0588    0.0271 C   0  0  0  0  0  0  0  0  0  0  0  0
   -2.5410   -0.6471    0.2385 C   0  0  0  0  0  0  0  0  0  0  0  0
   -0.1134   -0.8667    0.2447 N   0  0  0  0  0  0  0  0  0  0  0  0
  1  2  1  0
  2  3  2  0
  3  4  1  0
  4  5  2  0
  5  6  1  0
  6  7  1  0
  6  8  2  0
  8  2  1  0
M  END
>  <target>  (142) 
0.45

$$$$

     RDKit          3D

  5  4  0  0  0  0  0  0  0  0999 V2000
   -1.3582   -1.5934    0.5216 Cl  0  0  0  0  0  0  0  0  0  0  0  0
   -0.6992   -0.0923    0.0191 C   0  0  0  0  0  0  0  0  0  0  0  0
    0.6004    0.2045   -0.0593 C   0  0  0  0  0  0  0  0  0  0  0  0
    1.0833    1.7794   -0.5903 Cl  0  0  0  0  0  0  0  0  0  0  0  0
    1.8556   -0.9089    0.3446 Cl  0  0  0  0  0  0  0  0  0  0  0  0
  1  2  1  0
  2  3  2  3
  3  4  1  0
  3  5  1  0
M  END
>  <target>  (143) 
-1.96

$$$$

     RDKit          3D

 11 12  0  0  0  0  0  0  0  0999 V2000
   -2.1855    1.6139   -0.5005 N   0  0  0  0  0  0  0  0  0  0  0  0
   -1.4567    0.4156   -0.3321 C   0  0  0  0  0  0  0  0  0  0  0  0
   -2.0734   -0.7835   -0.7169 C   0  0  0  0  0  0  0  0  0  0  0  0
   -1.3893   -1.9935   -0.6520 C   0  0  0  0  0  0  0  0  0  0  0  0
   -0.0603   -2.0155   -0.2406 C   0  0  0  0  0  0  0  0  0  0  0  0
    0.6104   -0.8275    0.0828 C   0  0  0  0  0  0  0  0  0  0  0  0
    1.9645   -0.8639    0.4567 C   0  0  0  0  0  0  0  0  0  0  0  0
    2.6597    0.3071    0.7527 C   0  0  0  0  0  0  0  0  0  0  0  0
    2.0108    1.5316    0.6728 C   0  0  0  0  0  0  0  0  0  0  0  0
    0.6628    1.5837    0.3082 C   0  0  0  0  0  0  0  0  0  0  0  0
   -0.0763    0.4128    0.0166 C   0  0  0  0  0  0  0  0  0  0  0  0
  1  2  1  0
  2  3  2  0
  3  4  1  0
  4  5  2  0
  5  6  1  0
  6  7  2  0
  7  8  1  0
  8  9  2  0
  9 10  1  0
 10 11  2  0
 11  2  1  0
 11  6  1  0
M  END
>  <target>  (144) 
-1.92

$$$$

     RDKit          3D

  8  8  0  0  0  0  0  0  0  0999 V2000
    2.5111   -0.8325    0.3387 C   0  0  0  0  0  0  0  0  0  0  0  0
    1.2186   -0.1334    0.0381 C   0  0  0  0  0  0  0  0  0  0  0  0
    1.2168    1.1962   -0.3977 C   0  0  0  0  0  0  0  0  0  0  0  0
    0.0126    1.8570   -0.6397 C   0  0  0  0  0  0  0  0  0  0  0  0
   -1.2002    1.1971   -0.4426 C   0  0  0  0  0  0  0  0  0  0  0  0
   -1.2193   -0.1324   -0.0072 C   0  0  0  0  0  0  0  0  0  0  0  0
   -2.5226   -0.8305    0.2453 C   0  0  0  0  0  0  0  0  0  0  0  0
   -0.0049   -0.7844    0.2476 C   0  0  0  0  0  0  0  0  0  0  0  0
  1  2  1  0
  2  3  2  0
  3  4  1  0
  4  5  2  0
  5  6  1  0
  6  7  1  0
  6  8  2  0
  8  2  1  0
M  END
>  <target>  (145) 
-2.82

$$$$

     RDKit          3D

 11 12  0  0  0  0  0  0  0  0999 V2000
    3.5238    0.5939   -0.0497 O   0  0  0  0  0  0  0  0  0  0  0  0
    2.2503    0.1262   -0.0992 C   0  0  0  0  0  0  0  0  0  0  0  0
    2.0756   -1.1490   -0.4285 N   0  0  0  0  0  0  0  0  0  0  0  0
    0.7878   -1.5451   -0.4581 C   0  0  0  0  0  0  0  0  0  0  0  0
   -0.2917   -0.7372   -0.1792 C   0  0  0  0  0  0  0  0  0  0  0  0
   -1.5748   -1.1848   -0.2227 N   0  0  0  0  0  0  0  0  0  0  0  0
   -2.5196   -0.2731    0.0759 C   0  0  0  0  0  0  0  0  0  0  0  0
   -2.1916    1.0249    0.4023 C   0  0  0  0  0  0  0  0  0  0  0  0
   -0.9112    1.4619    0.4432 N   0  0  0  0  0  0  0  0  0  0  0  0
    0.0572    0.5862    0.1528 C   0  0  0  0  0  0  0  0  0  0  0  0
    1.3150    1.0216    0.1946 N   0  0  0  0  0  0  0  0  0  0  0  0
  1  2  1  0
  2  3  2  0
  3  4  1  0
  4  5  2  0
  5  6  1  0
  6  7  2  0
  7  8  1  0
  8  9  2  0
  9 10  1  0
 10 11  2  0
 10  5  1  0
 11  2  1  0
M  END
>  <target>  (146) 
-1.9469999999999998

$$$$

     RDKit          3D

  2  1  0  0  0  0  0  0  0  0999 V2000
   -0.3707   -0.0109   -0.0157 C   0  0  0  0  0  0  0  0  0  0  0  0
    0.9416   -0.5332   -0.1117 O   0  0  0  0  0  0  0  0  0  0  0  0
  1  2  1  0
M  END
>  <target>  (147) 
1.57

$$$$

     RDKit          3D

 16 16  0  0  0  0  0  0  0  0999 V2000
   -1.7876   -1.0504    2.5325 C   0  0  0  0  0  0  0  0  0  0  0  0
   -2.0286   -1.2607    1.0415 C   0  0  0  0  0  0  0  0  0  0  0  0
   -1.1847   -0.3615    0.0868 C   0  0  0  0  0  0  0  0  0  0  0  0
    0.3323   -0.5225    0.3669 C   0  0  0  0  0  0  0  0  0  0  0  0
    1.2465    0.2772   -0.5817 C   0  0  0  0  0  0  0  0  0  0  0  0
    2.7449   -0.0249   -0.3784 C   0  0  0  0  0  0  0  0  0  0  0  0
    3.5684    0.6933   -1.4507 C   0  0  0  0  0  0  0  0  0  0  0  0
    3.2419    0.3811    1.0099 C   0  0  0  0  0  0  0  0  0  0  0  0
   -1.5270   -0.8421   -1.3191 C   0  0  0  0  0  0  0  0  0  0  0  0
   -0.8887   -1.6999   -1.9246 O   0  0  0  0  0  0  0  0  0  0  0  0
   -2.6602   -0.3133   -1.8737 N   0  0  0  0  0  0  0  0  0  0  0  0
   -3.1819    0.8980   -1.5433 C   0  0  0  0  0  0  0  0  0  0  0  0
   -3.9138    1.5109   -2.3133 O   0  0  0  0  0  0  0  0  0  0  0  0
   -2.7865    1.4378   -0.3603 N   0  0  0  0  0  0  0  0  0  0  0  0
   -1.6322    1.0814    0.2797 C   0  0  0  0  0  0  0  0  0  0  0  0
   -1.0500    1.8919    0.9960 O   0  0  0  0  0  0  0  0  0  0  0  0
  1  2  1  0
  2  3  1  0
  3  4  1  0
  4  5  1  0
  5  6  1  0
  6  7  1  0
  6  8  1  0
  3  9  1  0
  9 10  2  0
  9 11  1  0
 11 12  1  0
 12 13  2  0
 12 14  1  0
 14 15  1  0
 15 16  2  0
 15  3  1  0
M  END
>  <target>  (148) 
-2.468

$$$$

     RDKit          3D

  5  4  0  0  0  0  0  0  0  0999 V2000
   -1.8966    0.1125    0.2327 C   0  0  0  0  0  0  0  0  0  0  0  0
   -0.5231   -0.5026    0.0343 C   0  0  0  0  0  0  0  0  0  0  0  0
    0.5949    0.5185    0.1368 C   0  0  0  0  0  0  0  0  0  0  0  0
    0.3910    1.7113    0.3573 O   0  0  0  0  0  0  0  0  0  0  0  0
    1.9941   -0.0090   -0.0482 C   0  0  0  0  0  0  0  0  0  0  0  0
  1  2  1  0
  2  3  1  0
  3  4  2  0
  3  5  1  0
M  END
>  <target>  (149) 
0.52

$$$$

     RDKit          3D

  9  9  0  0  0  0  0  0  0  0999 V2000
    2.4161    1.2629    0.1241 F   0  0  0  0  0  0  0  0  0  0  0  0
    1.2068    0.6772    0.0632 C   0  0  0  0  0  0  0  0  0  0  0  0
    0.0712    1.3754    0.0391 C   0  0  0  0  0  0  0  0  0  0  0  0
   -1.1394    0.7374   -0.0232 N   0  0  0  0  0  0  0  0  0  0  0  0
   -1.2751   -0.6272   -0.0645 C   0  0  0  0  0  0  0  0  0  0  0  0
   -2.3735   -1.1678   -0.1200 O   0  0  0  0  0  0  0  0  0  0  0  0
   -0.1061   -1.3395   -0.0394 N   0  0  0  0  0  0  0  0  0  0  0  0
    1.1565   -0.8021    0.0222 C   0  0  0  0  0  0  0  0  0  0  0  0
    2.1647   -1.4989    0.0416 O   0  0  0  0  0  0  0  0  0  0  0  0
  1  2  1  0
  2  3  2  0
  3  4  1  0
  4  5  1  0
  5  6  2  0
  5  7  1  0
  7  8  1  0
  8  9  2  0
  8  2  1  0
M  END
>  <target>  (150) 
-1.077

$$$$

     RDKit          3D

 19 21  0  0  0  0  0  0  0  0999 V2000
    4.8810   -1.3835    0.8764 N   0  0  0  0  0  0  0  0  0  0  0  0
    3.8084   -0.9978    0.0856 C   0  0  0  0  0  0  0  0  0  0  0  0
    4.0855   -0.5074   -1.1380 N   0  0  0  0  0  0  0  0  0  0  0  0
    3.0603   -0.1189   -1.9186 C   0  0  0  0  0  0  0  0  0  0  0  0
    1.7424   -0.1329   -1.6359 N   0  0  0  0  0  0  0  0  0  0  0  0
    1.5121   -0.6367   -0.4085 C   0  0  0  0  0  0  0  0  0  0  0  0
    0.2716   -0.7966    0.1679 N   0  0  0  0  0  0  0  0  0  0  0  0
    0.4223   -1.3205    1.4293 C   0  0  0  0  0  0  0  0  0  0  0  0
    1.7704   -1.5063    1.6565 C   0  0  0  0  0  0  0  0  0  0  0  0
    2.4696   -1.0749    0.4960 C   0  0  0  0  0  0  0  0  0  0  0  0
   -0.9797   -0.4688   -0.5102 C   0  0  0  0  0  0  0  0  0  0  0  0
   -2.1070   -0.8010    0.3379 O   0  0  0  0  0  0  0  0  0  0  0  0
   -3.0411    0.3096    0.3056 C   0  0  0  0  0  0  0  0  0  0  0  0
   -3.0423    0.9788    1.6830 C   0  0  0  0  0  0  0  0  0  0  0  0
   -3.4979    0.0465    2.6681 O   0  0  0  0  0  0  0  0  0  0  0  0
   -2.6012    1.2077   -0.8415 C   0  0  0  0  0  0  0  0  0  0  0  0
   -2.9630    2.5714   -0.6977 O   0  0  0  0  0  0  0  0  0  0  0  0
   -1.0977    1.0187   -0.8515 C   0  0  0  0  0  0  0  0  0  0  0  0
   -0.5768    1.3854   -2.1288 O   0  0  0  0  0  0  0  0  0  0  0  0
  1  2  1  0
  2  3  2  0
  3  4  1  0
  4  5  2  0
  5  6  1  0
  6  7  1  0
  7  8  1  0
  8  9  2  0
  9 10  1  0
  7 11  1  0
 11 12  1  0
 12 13  1  0
 13 14  1  0
 14 15  1  0
 13 16  1  0
 16 17  1  0
 16 18  1  0
 18 19  1  0
 10  2  1  0
 10  6  2  0
 18 11  1  0
M  END
>  <target>  (151) 
-1.95

$$$$

     RDKit          3D

  8  8  0  0  0  0  0  0  0  0999 V2000
    2.1189   -1.2901    0.7098 O   0  0  0  0  0  0  0  0  0  0  0  0
    1.0658   -0.5208    0.3086 C   0  0  0  0  0  0  0  0  0  0  0  0
    1.2555    0.7768   -0.1617 C   0  0  0  0  0  0  0  0  0  0  0  0
    0.1496    1.5293   -0.5620 C   0  0  0  0  0  0  0  0  0  0  0  0
   -1.1316    0.9804   -0.4892 C   0  0  0  0  0  0  0  0  0  0  0  0
   -1.3001   -0.3172   -0.0166 C   0  0  0  0  0  0  0  0  0  0  0  0
   -2.5693   -0.8138    0.0377 O   0  0  0  0  0  0  0  0  0  0  0  0
   -0.2068   -1.0776    0.3854 C   0  0  0  0  0  0  0  0  0  0  0  0
  1  2  1  0
  2  3  2  0
  3  4  1  0
  4  5  2  0
  5  6  1  0
  6  7  1  0
  6  8  2  0
  8  2  1  0
M  END
>  <target>  (152) 
0.81

$$$$

     RDKit          3D

  7  6  0  0  0  0  0  0  0  0999 V2000
   -3.1801    0.3156    1.3722 C   0  0  0  0  0  0  0  0  0  0  0  0
   -2.1532   -0.1984    0.3759 C   0  0  0  0  0  0  0  0  0  0  0  0
   -0.7345    0.2080    0.7738 C   0  0  0  0  0  0  0  0  0  0  0  0
    0.2954   -0.3109   -0.2309 C   0  0  0  0  0  0  0  0  0  0  0  0
    1.7129    0.0950    0.1665 C   0  0  0  0  0  0  0  0  0  0  0  0
    2.7442   -0.4184   -0.8297 C   0  0  0  0  0  0  0  0  0  0  0  0
    4.0483   -0.0352   -0.4143 O   0  0  0  0  0  0  0  0  0  0  0  0
  1  2  1  0
  2  3  1  0
  3  4  1  0
  4  5  1  0
  5  6  1  0
  6  7  1  0
M  END
>  <target>  (153) 
-1.24

$$$$

     RDKit          3D

  6  5  0  0  0  0  0  0  0  0999 V2000
   -2.5400   -0.4047    0.1059 C   0  0  0  0  0  0  0  0  0  0  0  0
   -1.2801    0.2948    0.5906 C   0  0  0  0  0  0  0  0  0  0  0  0
   -0.0354   -0.2390   -0.1178 C   0  0  0  0  0  0  0  0  0  0  0  0
    1.2301    0.4670    0.3723 C   0  0  0  0  0  0  0  0  0  0  0  0
    2.4665   -0.0692   -0.3371 C   0  0  0  0  0  0  0  0  0  0  0  0
    3.9263    0.7631    0.2456 Cl  0  0  0  0  0  0  0  0  0  0  0  0
  1  2  1  0
  2  3  1  0
  3  4  1  0
  4  5  1  0
  5  6  1  0
M  END
>  <target>  (154) 
-2.73

$$$$

     RDKit          3D

  4  3  0  0  0  0  0  0  0  0999 V2000
    1.8326    0.0296   -0.0802 C   0  0  0  0  0  0  0  0  0  0  0  0
    0.5683    0.3364    0.2322 C   0  0  0  0  0  0  0  0  0  0  0  0
   -0.5683   -0.3364   -0.3463 C   0  0  0  0  0  0  0  0  0  0  0  0
   -1.8326   -0.0296   -0.0339 C   0  0  0  0  0  0  0  0  0  0  0  0
  1  2  2  0
  2  3  1  0
  3  4  2  0
M  END
>  <target>  (155) 
-1.87

$$$$

     RDKit          3D

  7  6  0  0  0  0  0  0  0  0999 V2000
   -2.2366    0.6077    0.5496 C   0  0  0  0  0  0  0  0  0  0  0  0
   -1.7468   -0.7411    0.0419 C   0  0  0  0  0  0  0  0  0  0  0  0
   -0.4512   -0.6255   -0.7549 C   0  0  0  0  0  0  0  0  0  0  0  0
    0.5891   -0.1488    0.1083 O   0  0  0  0  0  0  0  0  0  0  0  0
    1.7944    0.0079   -0.5042 C   0  0  0  0  0  0  0  0  0  0  0  0
    2.0294   -0.2242   -1.6814 O   0  0  0  0  0  0  0  0  0  0  0  0
    2.8063    0.5108    0.4791 C   0  0  0  0  0  0  0  0  0  0  0  0
  1  2  1  0
  2  3  1  0
  3  4  1  0
  4  5  1  0
  5  6  2  0
  5  7  1  0
M  END
>  <target>  (156) 
-0.72

$$$$

     RDKit          3D

 11 12  0  0  0  0  0  0  0  0999 V2000
    3.8424    1.0225   -0.2215 O   0  0  0  0  0  0  0  0  0  0  0  0
    2.6272    0.4149   -0.1020 C   0  0  0  0  0  0  0  0  0  0  0  0
    2.5206   -0.9510    0.1275 C   0  0  0  0  0  0  0  0  0  0  0  0
    1.2552   -1.5293    0.2375 C   0  0  0  0  0  0  0  0  0  0  0  0
    0.0956   -0.7474    0.1133 C   0  0  0  0  0  0  0  0  0  0  0  0
   -1.2535   -1.4056    0.2719 C   0  0  0  0  0  0  0  0  0  0  0  0
   -2.4066   -0.5517   -0.2520 C   0  0  0  0  0  0  0  0  0  0  0  0
   -2.2834    0.8790    0.2561 C   0  0  0  0  0  0  0  0  0  0  0  0
   -0.9978    1.5209   -0.2620 C   0  0  0  0  0  0  0  0  0  0  0  0
    0.2155    0.6389   -0.0983 C   0  0  0  0  0  0  0  0  0  0  0  0
    1.4919    1.2085   -0.2176 C   0  0  0  0  0  0  0  0  0  0  0  0
  1  2  1  0
  2  3  2  0
  3  4  1  0
  4  5  2  0
  5  6  1  0
  6  7  1  0
  7  8  1  0
  8  9  1  0
  9 10  1  0
 10 11  2  0
 10  5  1  0
 11  2  1  0
M  END
>  <target>  (157) 
-1.99

$$$$

     RDKit          3D

  5  4  0  0  0  0  0  0  0  0999 V2000
    1.0425    0.4585    0.7430 N   0  0  0  0  0  0  0  0  0  0  0  0
    0.2612    0.4737   -0.3779 C   0  0  0  0  0  0  0  0  0  0  0  0
    0.4629    1.3068   -1.2577 O   0  0  0  0  0  0  0  0  0  0  0  0
   -0.7710   -0.6277   -0.5149 C   0  0  0  0  0  0  0  0  0  0  0  0
   -1.4840   -1.0411    1.0624 Cl  0  0  0  0  0  0  0  0  0  0  0  0
  1  2  1  0
  2  3  2  0
  2  4  1  0
  4  5  1  0
M  END
>  <target>  (158) 
-0.02

$$$$

     RDKit          3D

 16 16  0  0  0  0  0  0  0  0999 V2000
   -2.5147   -2.2367   -1.2443 C   0  0  0  0  0  0  0  0  0  0  0  0
   -2.5771   -0.8708   -0.8822 O   0  0  0  0  0  0  0  0  0  0  0  0
   -1.4097   -0.2793    0.0732 P   0  0  0  0  0  0  0  0  0  0  0  0
   -1.2900   -1.0344    1.8567 S   0  0  0  0  0  0  0  0  0  0  0  0
   -1.7209    1.3090   -0.0145 O   0  0  0  0  0  0  0  0  0  0  0  0
   -2.9313    1.7863    0.5396 C   0  0  0  0  0  0  0  0  0  0  0  0
   -0.1115   -0.4085   -0.8922 O   0  0  0  0  0  0  0  0  0  0  0  0
    1.1385   -0.0694   -0.4513 C   0  0  0  0  0  0  0  0  0  0  0  0
    1.4610    1.2678   -0.2253 C   0  0  0  0  0  0  0  0  0  0  0  0
    2.7446    1.6131    0.2130 C   0  0  0  0  0  0  0  0  0  0  0  0
    3.0555    3.2929    0.4747 Cl  0  0  0  0  0  0  0  0  0  0  0  0
    3.7061    0.6123    0.4133 C   0  0  0  0  0  0  0  0  0  0  0  0
    5.6601    1.0065    1.0692 I   0  0  0  0  0  0  0  0  0  0  0  0
    3.3813   -0.7282    0.1665 C   0  0  0  0  0  0  0  0  0  0  0  0
    2.1004   -1.0655   -0.2713 C   0  0  0  0  0  0  0  0  0  0  0  0
    1.7344   -2.7232   -0.5782 Cl  0  0  0  0  0  0  0  0  0  0  0  0
  1  2  1  0
  2  3  1  0
  3  4  2  0
  3  5  1  0
  5  6  1  0
  3  7  1  0
  7  8  1  0
  8  9  2  0
  9 10  1  0
 10 11  1  0
 10 12  2  0
 12 13  1  0
 12 14  1  0
 14 15  2  0
 15 16  1  0
 15  8  1  0
M  END
>  <target>  (159) 
-6.62

$$$$

     RDKit          3D

  8  8  0  0  0  0  0  0  0  0999 V2000
   -2.2606    0.0201    0.0922 C   0  0  0  0  0  0  0  0  0  0  0  0
   -0.7605    0.0043    0.0558 C   0  0  0  0  0  0  0  0  0  0  0  0
   -0.0374    1.2022    0.1294 C   0  0  0  0  0  0  0  0  0  0  0  0
    1.3578    1.1909    0.0640 C   0  0  0  0  0  0  0  0  0  0  0  0
    2.0339   -0.0178   -0.0858 C   0  0  0  0  0  0  0  0  0  0  0  0
    3.7527   -0.0319   -0.1675 Cl  0  0  0  0  0  0  0  0  0  0  0  0
    1.3267   -1.2146   -0.1747 C   0  0  0  0  0  0  0  0  0  0  0  0
   -0.0685   -1.2028   -0.1093 C   0  0  0  0  0  0  0  0  0  0  0  0
  1  2  1  0
  2  3  2  0
  3  4  1  0
  4  5  2  0
  5  6  1  0
  5  7  1  0
  7  8  2  0
  8  2  1  0
M  END
>  <target>  (160) 
-3.08

$$$$

     RDKit          3D

 14 14  0  0  0  0  0  0  0  0999 V2000
    4.3829    1.1958   -1.2623 C   0  0  0  0  0  0  0  0  0  0  0  0
    3.8480   -0.5126   -1.0258 S   0  0  0  0  0  0  0  0  0  0  0  0
    2.1562   -0.2681   -0.6076 C   0  0  0  0  0  0  0  0  0  0  0  0
    1.6048    0.8806   -0.8281 N   0  0  0  0  0  0  0  0  0  0  0  0
    0.2676    1.0989   -0.4967 N   0  0  0  0  0  0  0  0  0  0  0  0
   -0.4601    0.1272   -0.0332 C   0  0  0  0  0  0  0  0  0  0  0  0
    0.1188   -1.2661    0.1452 C   0  0  0  0  0  0  0  0  0  0  0  0
   -0.5933   -2.2194    0.4376 O   0  0  0  0  0  0  0  0  0  0  0  0
    1.4784   -1.3528   -0.0858 N   0  0  0  0  0  0  0  0  0  0  0  0
    2.1134   -2.6229    0.1488 N   0  0  0  0  0  0  0  0  0  0  0  0
   -1.9360    0.3783    0.3406 C   0  0  0  0  0  0  0  0  0  0  0  0
   -2.1883    0.0044    1.8090 C   0  0  0  0  0  0  0  0  0  0  0  0
   -2.2803    1.8749    0.1749 C   0  0  0  0  0  0  0  0  0  0  0  0
   -2.8588   -0.4203   -0.5913 C   0  0  0  0  0  0  0  0  0  0  0  0
  1  2  1  0
  2  3  1  0
  3  4  2  0
  4  5  1  0
  5  6  2  0
  6  7  1  0
  7  8  2  0
  7  9  1  0
  9 10  1  0
  6 11  1  0
 11 12  1  0
 11 13  1  0
 11 14  1  0
  9  3  1  0
M  END
>  <target>  (161) 
-2.253

$$$$

     RDKit          3D

 26 28  0  0  0  0  0  0  0  0999 V2000
    6.4337    1.6747    0.3989 C   0  0  0  0  0  0  0  0  0  0  0  0
    5.0875    1.0267    0.2697 C   0  0  0  0  0  0  0  0  0  0  0  0
    4.0098    1.4686    1.0461 C   0  0  0  0  0  0  0  0  0  0  0  0
    2.7457    0.8872    0.9091 C   0  0  0  0  0  0  0  0  0  0  0  0
    2.5490   -0.1346   -0.0154 C   0  0  0  0  0  0  0  0  0  0  0  0
    1.3573   -0.7669   -0.2229 O   0  0  0  0  0  0  0  0  0  0  0  0
   -0.0305   -0.3761    0.5016 P   0  0  0  0  0  0  0  0  0  0  0  0
   -0.0031   -0.4160    2.0046 O   0  0  0  0  0  0  0  0  0  0  0  0
   -0.3884    1.0600   -0.1415 O   0  0  0  0  0  0  0  0  0  0  0  0
   -1.5491    1.7444    0.0801 C   0  0  0  0  0  0  0  0  0  0  0  0
   -2.5257    1.3571    0.9934 C   0  0  0  0  0  0  0  0  0  0  0  0
   -3.6761    2.1325    1.1477 C   0  0  0  0  0  0  0  0  0  0  0  0
   -3.8522    3.2905    0.3892 C   0  0  0  0  0  0  0  0  0  0  0  0
   -2.8814    3.6814   -0.5389 C   0  0  0  0  0  0  0  0  0  0  0  0
   -3.0481    4.9447   -1.3297 C   0  0  0  0  0  0  0  0  0  0  0  0
   -1.7231    2.9059   -0.6762 C   0  0  0  0  0  0  0  0  0  0  0  0
   -1.0992   -1.3648   -0.1912 O   0  0  0  0  0  0  0  0  0  0  0  0
   -1.1292   -2.7242   -0.0419 C   0  0  0  0  0  0  0  0  0  0  0  0
   -0.2615   -3.4211    0.8004 C   0  0  0  0  0  0  0  0  0  0  0  0
   -0.3465   -4.8109    0.8969 C   0  0  0  0  0  0  0  0  0  0  0  0
   -1.2980   -5.5064    0.1559 C   0  0  0  0  0  0  0  0  0  0  0  0
   -2.1701   -4.8133   -0.6829 C   0  0  0  0  0  0  0  0  0  0  0  0
   -2.0958   -3.4173   -0.7894 C   0  0  0  0  0  0  0  0  0  0  0  0
   -3.0417   -2.6818   -1.6969 C   0  0  0  0  0  0  0  0  0  0  0  0
    3.6142   -0.5724   -0.8019 C   0  0  0  0  0  0  0  0  0  0  0  0
    4.8764    0.0086   -0.6659 C   0  0  0  0  0  0  0  0  0  0  0  0
  1  2  1  0
  2  3  2  0
  3  4  1  0
  4  5  2  0
  5  6  1  0
  6  7  1  0
  7  8  2  0
  7  9  1  0
  9 10  1  0
 10 11  2  0
 11 12  1  0
 12 13  2  0
 13 14  1  0
 14 15  1  0
 14 16  2  0
  7 17  1  0
 17 18  1  0
 18 19  2  0
 19 20  1  0
 20 21  2  0
 21 22  1  0
 22 23  2  0
 23 24  1  0
  5 25  1  0
 25 26  2  0
 26  2  1  0
 16 10  1  0
 23 18  1  0
M  END
>  <target>  (162) 
-6.01

$$$$

     RDKit          3D

  7  6  0  0  0  0  0  0  0  0999 V2000
   -3.0100    0.1172    0.0357 C   0  0  0  0  0  0  0  0  0  0  0  0
   -1.6595   -0.4891   -0.3105 C   0  0  0  0  0  0  0  0  0  0  0  0
   -0.5131    0.2971    0.3251 C   0  0  0  0  0  0  0  0  0  0  0  0
    0.8432   -0.3157   -0.0254 C   0  0  0  0  0  0  0  0  0  0  0  0
    1.9873    0.4687    0.6088 C   0  0  0  0  0  0  0  0  0  0  0  0
    3.3416   -0.1124    0.2808 C   0  0  0  0  0  0  0  0  0  0  0  0
    3.5268   -1.1043   -0.4161 O   0  0  0  0  0  0  0  0  0  0  0  0
  1  2  1  0
  2  3  1  0
  3  4  1  0
  4  5  1  0
  5  6  1  0
  6  7  2  0
M  END
>  <target>  (163) 
-1.3

$$$$

     RDKit          3D

 14 14  0  0  0  0  0  0  0  0999 V2000
   -4.9520    0.7313    1.1549 C   0  0  0  0  0  0  0  0  0  0  0  0
   -4.1869    0.1488   -0.0226 C   0  0  0  0  0  0  0  0  0  0  0  0
   -2.6820    0.3475    0.1349 C   0  0  0  0  0  0  0  0  0  0  0  0
   -1.9126   -0.2343   -1.0472 C   0  0  0  0  0  0  0  0  0  0  0  0
   -0.5073    0.0172   -0.8896 O   0  0  0  0  0  0  0  0  0  0  0  0
    0.1799   -0.9060   -0.1716 C   0  0  0  0  0  0  0  0  0  0  0  0
   -0.2897   -1.9070    0.3459 O   0  0  0  0  0  0  0  0  0  0  0  0
    1.6184   -0.5345   -0.0825 C   0  0  0  0  0  0  0  0  0  0  0  0
    2.1394    0.6158   -0.6862 C   0  0  0  0  0  0  0  0  0  0  0  0
    3.5021    0.9144   -0.5707 C   0  0  0  0  0  0  0  0  0  0  0  0
    4.3535    0.0988    0.1789 C   0  0  0  0  0  0  0  0  0  0  0  0
    5.7311    0.3386    0.1877 N   0  0  0  0  0  0  0  0  0  0  0  0
    3.8407   -1.0781    0.7290 C   0  0  0  0  0  0  0  0  0  0  0  0
    2.4803   -1.3849    0.6198 C   0  0  0  0  0  0  0  0  0  0  0  0
  1  2  1  0
  2  3  1  0
  3  4  1  0
  4  5  1  0
  5  6  1  0
  6  7  2  0
  6  8  1  0
  8  9  2  0
  9 10  1  0
 10 11  2  0
 11 12  1  0
 11 13  1  0
 13 14  2  0
 14  8  1  0
M  END
>  <target>  (164) 
-3.082

$$$$

     RDKit          3D

 19 21  0  0  0  0  0  0  0  0999 V2000
    0.2361   -0.7823    1.4896 O   0  0  0  0  0  0  0  0  0  0  0  0
   -0.8791   -0.2949    0.8580 C   0  0  0  0  0  0  0  0  0  0  0  0
   -1.7441    0.4726    1.6499 C   0  0  0  0  0  0  0  0  0  0  0  0
   -2.9492    0.9463    1.1292 C   0  0  0  0  0  0  0  0  0  0  0  0
   -3.8853    1.7498    1.9810 C   0  0  0  0  0  0  0  0  0  0  0  0
   -3.2924    0.6008   -0.1787 C   0  0  0  0  0  0  0  0  0  0  0  0
   -2.4317   -0.1831   -0.9588 C   0  0  0  0  0  0  0  0  0  0  0  0
   -1.1997   -0.6392   -0.4602 C   0  0  0  0  0  0  0  0  0  0  0  0
   -0.3501   -1.4655   -1.2639 N   0  0  0  0  0  0  0  0  0  0  0  0
   -0.9657   -2.2378   -2.3400 C   0  0  0  0  0  0  0  0  0  0  0  0
    1.0499   -1.5241   -1.1842 C   0  0  0  0  0  0  0  0  0  0  0  0
    1.7210   -2.2584   -1.9154 O   0  0  0  0  0  0  0  0  0  0  0  0
    1.8152   -0.6271   -0.3015 C   0  0  0  0  0  0  0  0  0  0  0  0
    3.0567   -0.1395   -0.7350 C   0  0  0  0  0  0  0  0  0  0  0  0
    3.8420    0.6446    0.1080 C   0  0  0  0  0  0  0  0  0  0  0  0
    5.0144    1.2414   -0.3652 N   0  0  0  0  0  0  0  0  0  0  0  0
    3.2884    0.9766    1.3430 C   0  0  0  0  0  0  0  0  0  0  0  0
    2.1056    0.5107    1.8077 N   0  0  0  0  0  0  0  0  0  0  0  0
    1.3970   -0.2816    0.9665 C   0  0  0  0  0  0  0  0  0  0  0  0
  1  2  1  0
  2  3  2  0
  3  4  1  0
  4  5  1  0
  4  6  2  0
  6  7  1  0
  7  8  2  0
  8  9  1  0
  9 10  1  0
  9 11  1  0
 11 12  2  0
 11 13  1  0
 13 14  2  0
 14 15  1  0
 15 16  1  0
 15 17  2  0
 17 18  1  0
 18 19  2  0
  8  2  1  0
 19  1  1  0
 19 13  1  0
M  END
>  <target>  (165) 
-3.043

$$$$

     RDKit          3D

 11 10  0  0  0  0  0  0  0  0999 V2000
    1.9207    2.0424    1.4399 C   0  0  0  0  0  0  0  0  0  0  0  0
    1.7003    1.1923    0.2161 C   0  0  0  0  0  0  0  0  0  0  0  0
    2.8965    0.3814   -0.1997 C   0  0  0  0  0  0  0  0  0  0  0  0
    0.5088    1.1836   -0.4123 C   0  0  0  0  0  0  0  0  0  0  0  0
    0.1347    0.4185   -1.6551 C   0  0  0  0  0  0  0  0  0  0  0  0
   -0.4866   -0.9564   -1.3680 C   0  0  0  0  0  0  0  0  0  0  0  0
   -1.7679   -0.9090   -0.5578 C   0  0  0  0  0  0  0  0  0  0  0  0
   -2.9905   -0.4630   -1.3195 C   0  0  0  0  0  0  0  0  0  0  0  0
   -1.8640   -1.2411    0.7460 C   0  0  0  0  0  0  0  0  0  0  0  0
   -0.7815   -1.7004    1.6687 C   0  0  0  0  0  0  0  0  0  0  0  0
   -0.5882   -0.6939    2.6501 O   0  0  0  0  0  0  0  0  0  0  0  0
  1  2  1  0
  2  3  1  0
  2  4  2  3
  4  5  1  0
  5  6  1  0
  6  7  1  0
  7  8  1  0
  7  9  2  0
  9 10  1  0
 10 11  1  0
M  END
>  <target>  (166) 
-2.46

$$$$

     RDKit          3D

 14 15  0  0  0  0  0  0  0  0999 V2000
    5.2211   -0.2606   -0.0004 Cl  0  0  0  0  0  0  0  0  0  0  0  0
    3.5026   -0.1794   -0.0011 C   0  0  0  0  0  0  0  0  0  0  0  0
    2.8139   -0.0799    1.2052 C   0  0  0  0  0  0  0  0  0  0  0  0
    1.4177   -0.0130    1.2038 C   0  0  0  0  0  0  0  0  0  0  0  0
    0.6984   -0.0474   -0.0020 C   0  0  0  0  0  0  0  0  0  0  0  0
    1.4124   -0.1451   -1.2074 C   0  0  0  0  0  0  0  0  0  0  0  0
    2.8085   -0.2122   -1.2079 C   0  0  0  0  0  0  0  0  0  0  0  0
   -0.7692    0.0317   -0.0008 C   0  0  0  0  0  0  0  0  0  0  0  0
   -1.3850    1.2799    0.2094 C   0  0  0  0  0  0  0  0  0  0  0  0
   -2.7762    1.4080    0.2168 C   0  0  0  0  0  0  0  0  0  0  0  0
   -3.5796    0.2894    0.0153 C   0  0  0  0  0  0  0  0  0  0  0  0
   -2.9922   -0.9577   -0.1927 C   0  0  0  0  0  0  0  0  0  0  0  0
   -1.5986   -1.0881   -0.2007 C   0  0  0  0  0  0  0  0  0  0  0  0
   -0.9487   -2.6732   -0.4500 Cl  0  0  0  0  0  0  0  0  0  0  0  0
  1  2  1  0
  2  3  2  0
  3  4  1  0
  4  5  2  0
  5  6  1  0
  6  7  2  0
  5  8  1  0
  8  9  2  0
  9 10  1  0
 10 11  2  0
 11 12  1  0
 12 13  2  0
 13 14  1  0
  7  2  1  0
 13  8  1  0
M  END
>  <target>  (167) 
-5.28

$$$$

     RDKit          3D

 30 32  0  0  0  0  0  0  0  0999 V2000
   -2.0164    0.0360   -3.4442 O   0  0  0  0  0  0  0  0  0  0  0  0
   -2.4828   -0.1163   -2.3278 C   0  0  0  0  0  0  0  0  0  0  0  0
   -1.9830   -0.8679   -1.3203 N   0  0  0  0  0  0  0  0  0  0  0  0
   -0.7480   -1.5972   -1.3829 C   0  0  0  0  0  0  0  0  0  0  0  0
    0.2808   -0.7476   -0.8771 O   0  0  0  0  0  0  0  0  0  0  0  0
    1.5024   -1.3449   -0.8611 C   0  0  0  0  0  0  0  0  0  0  0  0
    1.7287   -2.4848   -1.2401 O   0  0  0  0  0  0  0  0  0  0  0  0
    2.5253   -0.3820   -0.3060 C   0  0  0  0  0  0  0  0  0  0  0  0
    3.9223   -0.9979   -0.2588 C   0  0  0  0  0  0  0  0  0  0  0  0
    4.9463   -0.0124    0.3055 C   0  0  0  0  0  0  0  0  0  0  0  0
    6.3451   -0.6295    0.3525 C   0  0  0  0  0  0  0  0  0  0  0  0
    7.3694    0.3563    0.9170 C   0  0  0  0  0  0  0  0  0  0  0  0
    8.7672   -0.2604    0.9639 C   0  0  0  0  0  0  0  0  0  0  0  0
    9.7885    0.7164    1.5245 C   0  0  0  0  0  0  0  0  0  0  0  0
   -2.8020   -0.8154   -0.2278 C   0  0  0  0  0  0  0  0  0  0  0  0
   -2.6089   -1.4186    0.8233 O   0  0  0  0  0  0  0  0  0  0  0  0
   -4.0124    0.1183   -0.5483 C   0  0  0  0  0  0  0  0  0  0  0  0
   -3.6467    0.4703   -1.9088 N   0  0  0  0  0  0  0  0  0  0  0  0
   -3.9885    1.3272    0.4001 C   0  0  0  0  0  0  0  0  0  0  0  0
   -3.6091    2.6147   -0.0227 C   0  0  0  0  0  0  0  0  0  0  0  0
   -3.5966    3.6895    0.8707 C   0  0  0  0  0  0  0  0  0  0  0  0
   -3.9577    3.4988    2.2015 C   0  0  0  0  0  0  0  0  0  0  0  0
   -4.3284    2.2328    2.6438 C   0  0  0  0  0  0  0  0  0  0  0  0
   -4.3417    1.1573    1.7535 C   0  0  0  0  0  0  0  0  0  0  0  0
   -5.3772   -0.5848   -0.5935 C   0  0  0  0  0  0  0  0  0  0  0  0
   -5.5431   -1.9527   -0.3166 C   0  0  0  0  0  0  0  0  0  0  0  0
   -6.8048   -2.5516   -0.3840 C   0  0  0  0  0  0  0  0  0  0  0  0
   -7.9229   -1.7983   -0.7299 C   0  0  0  0  0  0  0  0  0  0  0  0
   -7.7843   -0.4428   -1.0084 C   0  0  0  0  0  0  0  0  0  0  0  0
   -6.5257    0.1579   -0.9423 C   0  0  0  0  0  0  0  0  0  0  0  0
  1  2  2  0
  2  3  1  0
  3  4  1  0
  4  5  1  0
  5  6  1  0
  6  7  2  0
  6  8  1  0
  8  9  1  0
  9 10  1  0
 10 11  1  0
 11 12  1  0
 12 13  1  0
 13 14  1  0
  3 15  1  0
 15 16  2  0
 15 17  1  0
 17 18  1  0
 17 19  1  0
 19 20  2  0
 20 21  1  0
 21 22  2  0
 22 23  1  0
 23 24  2  0
 17 25  1  0
 25 26  2  0
 26 27  1  0
 27 28  2  0
 28 29  1  0
 29 30  2  0
 18  2  1  0
 24 19  1  0
 30 25  1  0
M  END
>  <target>  (168) 
-6.523

$$$$

     RDKit          3D

  5  4  0  0  0  0  0  0  0  0999 V2000
   -1.0041    0.0529    0.5308 C   0  0  0  0  0  0  0  0  0  0  0  0
    0.1293   -0.5655   -0.2602 C   0  0  0  0  0  0  0  0  0  0  0  0
    1.1960    0.4677   -0.4501 N   0  0  0  0  0  0  0  0  0  0  0  0
    1.1164    1.1806   -1.4581 O   0  0  0  0  0  0  0  0  0  0  0  0
    2.0745    0.5362    0.4185 O   0  0  0  0  0  0  0  0  0  0  0  0
  1  2  1  0
  2  3  1  0
  3  4  1  0
  3  5  2  0
M  CHG  2   3   1   4  -1
M  END
>  <target>  (169) 
-0.22

$$$$

     RDKit          3D

 23 23  0  0  0  0  0  0  0  0999 V2000
   -1.8118    2.3059    2.0625 C   0  0  0  0  0  0  0  0  0  0  0  0
   -0.7079    2.1768    1.0208 C   0  0  0  0  0  0  0  0  0  0  0  0
   -0.8046    0.8769    0.3227 N   0  0  0  0  0  0  0  0  0  0  0  0
   -1.8145    0.8200   -0.7549 C   0  0  0  0  0  0  0  0  0  0  0  0
   -2.2426   -0.6098   -0.9787 C   0  0  0  0  0  0  0  0  0  0  0  0
   -3.1844   -1.1841    0.0436 C   0  0  0  0  0  0  0  0  0  0  0  0
   -1.8532   -1.3187   -2.0528 C   0  0  0  0  0  0  0  0  0  0  0  0
    0.4443    0.2732    0.0793 C   0  0  0  0  0  0  0  0  0  0  0  0
    0.8818   -0.7897    0.8999 C   0  0  0  0  0  0  0  0  0  0  0  0
    2.0901   -1.4902    0.7040 C   0  0  0  0  0  0  0  0  0  0  0  0
    2.9412   -1.1400   -0.3482 C   0  0  0  0  0  0  0  0  0  0  0  0
    2.5668   -0.0691   -1.1682 C   0  0  0  0  0  0  0  0  0  0  0  0
    1.3489    0.6131   -0.9468 C   0  0  0  0  0  0  0  0  0  0  0  0
    1.0987    1.7289   -1.8350 N   0  0  0  0  0  0  0  0  0  0  0  0
    0.8329    1.4550   -3.0130 O   0  0  0  0  0  0  0  0  0  0  0  0
    1.2188    2.8668   -1.3641 O   0  0  0  0  0  0  0  0  0  0  0  0
    4.2504   -1.8647   -0.5599 C   0  0  0  0  0  0  0  0  0  0  0  0
    5.2544   -1.3307    0.1850 F   0  0  0  0  0  0  0  0  0  0  0  0
    4.6731   -1.8246   -1.8520 F   0  0  0  0  0  0  0  0  0  0  0  0
    4.1850   -3.1805   -0.2239 F   0  0  0  0  0  0  0  0  0  0  0  0
    0.0814   -1.2133    2.0332 N   0  0  0  0  0  0  0  0  0  0  0  0
    0.0896   -0.4823    3.0333 O   0  0  0  0  0  0  0  0  0  0  0  0
   -0.4655   -2.3219    1.9492 O   0  0  0  0  0  0  0  0  0  0  0  0
  1  2  1  0
  2  3  1  0
  3  4  1  0
  4  5  1  0
  5  6  1  0
  5  7  2  0
  3  8  1  0
  8  9  2  0
  9 10  1  0
 10 11  2  0
 11 12  1  0
 12 13  2  0
 13 14  1  0
 14 15  1  0
 14 16  2  0
 11 17  1  0
 17 18  1  0
 17 19  1  0
 17 20  1  0
  9 21  1  0
 21 22  1  0
 21 23  2  0
 13  8  1  0
M  CHG  4  14   1  15  -1  21   1  22  -1
M  END
>  <target>  (170) 
-6.124

$$$$

     RDKit          3D

 10 10  0  0  0  0  0  0  0  0999 V2000
   -2.9533   -1.0339    0.0444 Cl  0  0  0  0  0  0  0  0  0  0  0  0
   -1.3197   -0.4640    0.0199 C   0  0  0  0  0  0  0  0  0  0  0  0
   -0.3117   -1.4316    0.0336 C   0  0  0  0  0  0  0  0  0  0  0  0
    1.0268   -1.0456    0.0153 C   0  0  0  0  0  0  0  0  0  0  0  0
    1.3642    0.3100   -0.0168 C   0  0  0  0  0  0  0  0  0  0  0  0
    3.0504    0.6976   -0.0378 Cl  0  0  0  0  0  0  0  0  0  0  0  0
    0.3597    1.2925   -0.0309 C   0  0  0  0  0  0  0  0  0  0  0  0
    0.7953    2.9757   -0.0709 Cl  0  0  0  0  0  0  0  0  0  0  0  0
   -0.9933    0.9023   -0.0124 C   0  0  0  0  0  0  0  0  0  0  0  0
   -2.2590    2.0948   -0.0291 Cl  0  0  0  0  0  0  0  0  0  0  0  0
  1  2  1  0
  2  3  2  0
  3  4  1  0
  4  5  2  0
  5  6  1  0
  5  7  1  0
  7  8  1  0
  7  9  2  0
  9 10  1  0
  9  2  1  0
M  END
>  <target>  (171) 
-4.57

$$$$

     RDKit          3D

 15 14  0  0  0  0  0  0  0  0999 V2000
   -2.5086   -2.1158   -1.8431 C   0  0  0  0  0  0  0  0  0  0  0  0
   -1.5926   -1.5324   -0.7761 C   0  0  0  0  0  0  0  0  0  0  0  0
   -0.5514   -0.5926   -1.3942 C   0  0  0  0  0  0  0  0  0  0  0  0
    0.4437    0.0639   -0.3930 C   0  0  0  0  0  0  0  0  0  0  0  0
    1.3463    1.0247   -1.2027 C   0  0  0  0  0  0  0  0  0  0  0  0
    1.3249   -1.0161    0.2789 C   0  0  0  0  0  0  0  0  0  0  0  0
    2.3005   -0.3990    1.1330 O   0  0  0  0  0  0  0  0  0  0  0  0
    3.1404   -1.2702    1.7348 C   0  0  0  0  0  0  0  0  0  0  0  0
    4.0112   -0.5998    2.5196 N   0  0  0  0  0  0  0  0  0  0  0  0
    3.1337   -2.4838    1.6143 O   0  0  0  0  0  0  0  0  0  0  0  0
   -0.2846    0.8784    0.7033 C   0  0  0  0  0  0  0  0  0  0  0  0
   -1.1909    1.8149    0.1004 O   0  0  0  0  0  0  0  0  0  0  0  0
   -1.8845    2.5630    0.9858 C   0  0  0  0  0  0  0  0  0  0  0  0
   -2.7085    3.4060    0.3267 N   0  0  0  0  0  0  0  0  0  0  0  0
   -1.8039    2.5102    2.2018 O   0  0  0  0  0  0  0  0  0  0  0  0
  1  2  1  0
  2  3  1  0
  3  4  1  0
  4  5  1  0
  4  6  1  0
  6  7  1  0
  7  8  1  0
  8  9  1  0
  8 10  2  0
  4 11  1  0
 11 12  1  0
 12 13  1  0
 13 14  1  0
 13 15  2  0
M  END
>  <target>  (172) 
-1.807

$$$$

     RDKit          3D

 23 26  0  0  0  0  0  0  0  0999 V2000
   -5.2805    2.2010   -1.4850 C   0  0  0  0  0  0  0  0  0  0  0  0
   -4.4400    1.5305   -0.4289 C   0  0  0  0  0  0  0  0  0  0  0  0
   -4.4310    1.9450    0.7302 O   0  0  0  0  0  0  0  0  0  0  0  0
   -3.6051    0.3281   -0.8763 C   0  0  0  0  0  0  0  0  0  0  0  0
   -3.7966   -0.8302    0.1131 C   0  0  0  0  0  0  0  0  0  0  0  0
   -2.5201   -0.9053    0.9545 C   0  0  0  0  0  0  0  0  0  0  0  0
   -1.6545    0.3001    0.5494 C   0  0  0  0  0  0  0  0  0  0  0  0
   -0.1311    0.1246    0.7525 C   0  0  0  0  0  0  0  0  0  0  0  0
    0.1817   -0.3037    2.1959 C   0  0  0  0  0  0  0  0  0  0  0  0
    1.6353   -0.5664    2.4107 C   0  0  0  0  0  0  0  0  0  0  0  0
    2.5075   -0.8314    1.4229 C   0  0  0  0  0  0  0  0  0  0  0  0
    3.9945   -0.8856    1.7207 C   0  0  0  0  0  0  0  0  0  0  0  0
    4.7613    0.1635    0.9047 C   0  0  0  0  0  0  0  0  0  0  0  0
    4.5005    1.4638    1.4389 O   0  0  0  0  0  0  0  0  0  0  0  0
    4.3935    0.1285   -0.5793 C   0  0  0  0  0  0  0  0  0  0  0  0
    2.8753    0.1386   -0.8224 C   0  0  0  0  0  0  0  0  0  0  0  0
    2.0979   -0.9640   -0.0486 C   0  0  0  0  0  0  0  0  0  0  0  0
    2.5158   -2.3620   -0.5764 C   0  0  0  0  0  0  0  0  0  0  0  0
    0.5261   -0.8532   -0.2482 C   0  0  0  0  0  0  0  0  0  0  0  0
    0.1110   -0.5190   -1.6961 C   0  0  0  0  0  0  0  0  0  0  0  0
   -1.4046   -0.4366   -1.8674 C   0  0  0  0  0  0  0  0  0  0  0  0
   -2.0742    0.5812   -0.9086 C   0  0  0  0  0  0  0  0  0  0  0  0
   -1.7132    2.0124   -1.3429 C   0  0  0  0  0  0  0  0  0  0  0  0
  1  2  1  0
  2  3  2  0
  2  4  1  0
  4  5  1  0
  5  6  1  0
  6  7  1  0
  7  8  1  0
  8  9  1  0
  9 10  1  0
 10 11  2  0
 11 12  1  0
 12 13  1  0
 13 14  1  0
 13 15  1  0
 15 16  1  0
 16 17  1  0
 17 18  1  0
 17 19  1  0
 19 20  1  0
 20 21  1  0
 21 22  1  0
 22 23  1  0
 17 11  1  0
 19  8  1  0
 22  4  1  0
 22  7  1  0
M  END
>  <target>  (173) 
-4.65

$$$$

     RDKit          3D

  2  1  0  0  0  0  0  0  0  0999 V2000
   -0.1861   -0.0048    0.0025 C   0  0  0  0  0  0  0  0  0  0  0  0
    1.9252    0.0493   -0.0256 I   0  0  0  0  0  0  0  0  0  0  0  0
  1  2  1  0
M  END
>  <target>  (174) 
-1.0

$$$$

     RDKit          3D

 20 21  0  0  0  0  0  0  0  0999 V2000
   -3.8580   -1.5917    1.6958 C   0  0  0  0  0  0  0  0  0  0  0  0
   -3.2778   -0.7876    0.5331 C   0  0  0  0  0  0  0  0  0  0  0  0
   -3.5152    0.7159    0.7459 C   0  0  0  0  0  0  0  0  0  0  0  0
   -2.9398    1.5536   -0.4008 C   0  0  0  0  0  0  0  0  0  0  0  0
   -3.1360    3.0427   -0.1339 C   0  0  0  0  0  0  0  0  0  0  0  0
   -1.4672    1.2004   -0.5918 C   0  0  0  0  0  0  0  0  0  0  0  0
   -0.5843    2.0556   -0.6320 O   0  0  0  0  0  0  0  0  0  0  0  0
   -1.1742   -0.2829   -0.7941 C   0  0  0  0  0  0  0  0  0  0  0  0
   -1.7753   -1.0763    0.3736 C   0  0  0  0  0  0  0  0  0  0  0  0
    0.3246   -0.5449   -1.0444 C   0  0  0  0  0  0  0  0  0  0  0  0
    0.4831   -1.8550   -1.6009 O   0  0  0  0  0  0  0  0  0  0  0  0
    1.2303   -0.4170    0.1932 C   0  0  0  0  0  0  0  0  0  0  0  0
    2.7361   -0.5800   -0.1105 C   0  0  0  0  0  0  0  0  0  0  0  0
    3.2832    0.5353   -1.0053 C   0  0  0  0  0  0  0  0  0  0  0  0
    4.7734    0.3979   -1.2190 C   0  0  0  0  0  0  0  0  0  0  0  0
    5.3441    0.8736   -2.1971 O   0  0  0  0  0  0  0  0  0  0  0  0
    5.4826   -0.2359   -0.2323 N   0  0  0  0  0  0  0  0  0  0  0  0
    5.0076   -0.7402    0.9494 C   0  0  0  0  0  0  0  0  0  0  0  0
    5.7630   -1.2405    1.7780 O   0  0  0  0  0  0  0  0  0  0  0  0
    3.5284   -0.5817    1.2000 C   0  0  0  0  0  0  0  0  0  0  0  0
  1  2  1  0
  2  3  1  0
  3  4  1  0
  4  5  1  0
  4  6  1  0
  6  7  2  0
  6  8  1  0
  8  9  1  0
  8 10  1  0
 10 11  1  0
 10 12  1  0
 12 13  1  0
 13 14  1  0
 14 15  1  0
 15 16  2  0
 15 17  1  0
 17 18  1  0
 18 19  2  0
 18 20  1  0
  9  2  1  0
 20 13  1  0
M  END
>  <target>  (175) 
-1.13

$$$$

     RDKit          3D

 29 31  0  0  0  0  0  0  0  0999 V2000
   -1.7479    0.3004    3.4415 O   0  0  0  0  0  0  0  0  0  0  0  0
   -2.0288   -0.0708    2.3144 C   0  0  0  0  0  0  0  0  0  0  0  0
   -1.2260   -0.7102    1.4327 N   0  0  0  0  0  0  0  0  0  0  0  0
    0.1521   -1.0303    1.6759 C   0  0  0  0  0  0  0  0  0  0  0  0
    0.9353    0.0881    1.2586 O   0  0  0  0  0  0  0  0  0  0  0  0
    2.2682   -0.0906    1.4614 C   0  0  0  0  0  0  0  0  0  0  0  0
    2.7718   -1.0881    1.9570 O   0  0  0  0  0  0  0  0  0  0  0  0
    3.0171    1.1425    1.0100 C   0  0  0  0  0  0  0  0  0  0  0  0
    4.5223    0.9125    0.8674 C   0  0  0  0  0  0  0  0  0  0  0  0
    4.8674    0.0639   -0.3613 C   0  0  0  0  0  0  0  0  0  0  0  0
    6.3591   -0.2661   -0.4717 C   0  0  0  0  0  0  0  0  0  0  0  0
    7.2384    0.9613   -0.7137 C   0  0  0  0  0  0  0  0  0  0  0  0
    8.6915    0.5676   -0.9320 C   0  0  0  0  0  0  0  0  0  0  0  0
   -1.8534   -0.8510    0.2271 C   0  0  0  0  0  0  0  0  0  0  0  0
   -1.3441   -1.3392   -0.7769 O   0  0  0  0  0  0  0  0  0  0  0  0
   -3.2922   -0.2545    0.3361 C   0  0  0  0  0  0  0  0  0  0  0  0
   -3.2551    0.1283    1.7369 N   0  0  0  0  0  0  0  0  0  0  0  0
   -4.3299   -1.3507    0.0528 C   0  0  0  0  0  0  0  0  0  0  0  0
   -4.5121   -1.8158   -1.2648 C   0  0  0  0  0  0  0  0  0  0  0  0
   -5.4498   -2.8086   -1.5568 C   0  0  0  0  0  0  0  0  0  0  0  0
   -6.2191   -3.3616   -0.5376 C   0  0  0  0  0  0  0  0  0  0  0  0
   -6.0501   -2.9247    0.7732 C   0  0  0  0  0  0  0  0  0  0  0  0
   -5.1139   -1.9298    1.0679 C   0  0  0  0  0  0  0  0  0  0  0  0
   -3.5150    1.0218   -0.4920 C   0  0  0  0  0  0  0  0  0  0  0  0
   -2.5030    1.6142   -1.2677 C   0  0  0  0  0  0  0  0  0  0  0  0
   -2.7425    2.7896   -1.9855 C   0  0  0  0  0  0  0  0  0  0  0  0
   -3.9936    3.3976   -1.9402 C   0  0  0  0  0  0  0  0  0  0  0  0
   -5.0103    2.8323   -1.1776 C   0  0  0  0  0  0  0  0  0  0  0  0
   -4.7739    1.6587   -0.4590 C   0  0  0  0  0  0  0  0  0  0  0  0
  1  2  2  0
  2  3  1  0
  3  4  1  0
  4  5  1  0
  5  6  1  0
  6  7  2  0
  6  8  1  0
  8  9  1  0
  9 10  1  0
 10 11  1  0
 11 12  1  0
 12 13  1  0
  3 14  1  0
 14 15  2  0
 14 16  1  0
 16 17  1  0
 16 18  1  0
 18 19  2  0
 19 20  1  0
 20 21  2  0
 21 22  1  0
 22 23  2  0
 16 24  1  0
 24 25  2  0
 25 26  1  0
 26 27  2  0
 27 28  1  0
 28 29  2  0
 17  2  1  0
 23 18  1  0
 29 24  1  0
M  END
>  <target>  (176) 
-6.301

$$$$

     RDKit          3D

 10 10  0  0  0  0  0  0  0  0999 V2000
    2.7856   -1.0009    0.0981 C   0  0  0  0  0  0  0  0  0  0  0  0
    1.5318   -0.1902    0.2584 C   0  0  0  0  0  0  0  0  0  0  0  0
    1.5765    1.1385    0.4468 C   0  0  0  0  0  0  0  0  0  0  0  0
    0.3368    1.9234    0.6603 C   0  0  0  0  0  0  0  0  0  0  0  0
    0.4162    3.1388    0.8250 O   0  0  0  0  0  0  0  0  0  0  0  0
   -0.9821    1.1855    0.7422 C   0  0  0  0  0  0  0  0  0  0  0  0
   -1.0004   -0.0904   -0.1181 C   0  0  0  0  0  0  0  0  0  0  0  0
   -2.2777   -0.8915    0.1924 C   0  0  0  0  0  0  0  0  0  0  0  0
   -1.0215    0.2780   -1.6172 C   0  0  0  0  0  0  0  0  0  0  0  0
    0.2350   -0.9619    0.2074 C   0  0  0  0  0  0  0  0  0  0  0  0
  1  2  1  0
  2  3  2  0
  3  4  1  0
  4  5  2  0
  4  6  1  0
  6  7  1  0
  7  8  1  0
  7  9  1  0
  7 10  1  0
 10  2  1  0
M  END
>  <target>  (177) 
-1.06

$$$$

     RDKit          3D

 15 15  0  0  0  0  0  0  0  0999 V2000
   -1.0534   -0.0308    2.1409 O   0  0  0  0  0  0  0  0  0  0  0  0
   -1.2855    0.4328    1.0268 C   0  0  0  0  0  0  0  0  0  0  0  0
   -2.3346    1.2924    0.8561 N   0  0  0  0  0  0  0  0  0  0  0  0
   -2.3528    2.2660   -0.0907 C   0  0  0  0  0  0  0  0  0  0  0  0
   -3.0148    3.2882    0.0549 O   0  0  0  0  0  0  0  0  0  0  0  0
   -1.5349    2.0976   -1.1626 N   0  0  0  0  0  0  0  0  0  0  0  0
   -0.4320    1.2873   -1.1586 C   0  0  0  0  0  0  0  0  0  0  0  0
    0.5028    1.5408   -1.9130 O   0  0  0  0  0  0  0  0  0  0  0  0
   -0.5012    0.0655   -0.2383 C   0  0  0  0  0  0  0  0  0  0  0  0
   -1.3637   -0.9906   -1.0011 C   0  0  0  0  0  0  0  0  0  0  0  0
   -1.5477   -2.3267   -0.2873 C   0  0  0  0  0  0  0  0  0  0  0  0
    0.9289   -0.4641    0.1570 C   0  0  0  0  0  0  0  0  0  0  0  0
    1.6996   -1.1300   -0.9968 C   0  0  0  0  0  0  0  0  0  0  0  0
    1.7985    0.6415    0.8170 C   0  0  0  0  0  0  0  0  0  0  0  0
    3.0250    0.0974    1.5405 C   0  0  0  0  0  0  0  0  0  0  0  0
  1  2  2  0
  2  3  1  0
  3  4  1  0
  4  5  2  0
  4  6  1  0
  6  7  1  0
  7  8  2  0
  7  9  1  0
  9 10  1  0
 10 11  1  0
  9 12  1  0
 12 13  1  0
 12 14  1  0
 14 15  1  0
  9  2  1  0
M  END
>  <target>  (178) 
-2.39

$$$$

     RDKit          3D

 10  9  0  0  0  0  0  0  0  0999 V2000
    3.8186    1.6831   -0.5537 C   0  0  0  0  0  0  0  0  0  0  0  0
    3.3641    0.2836   -0.1712 C   0  0  0  0  0  0  0  0  0  0  0  0
    1.8699    0.2469    0.1444 C   0  0  0  0  0  0  0  0  0  0  0  0
    1.4189   -1.1576    0.5276 C   0  0  0  0  0  0  0  0  0  0  0  0
   -0.0577   -1.1689    0.8654 C   0  0  0  0  0  0  0  0  0  0  0  0
   -0.4378   -1.0253    2.0272 O   0  0  0  0  0  0  0  0  0  0  0  0
   -1.0200   -1.3750   -0.2939 C   0  0  0  0  0  0  0  0  0  0  0  0
   -2.4685   -1.0240    0.0418 C   0  0  0  0  0  0  0  0  0  0  0  0
   -2.6882    0.4861    0.1622 C   0  0  0  0  0  0  0  0  0  0  0  0
   -4.1412    0.8124    0.4701 C   0  0  0  0  0  0  0  0  0  0  0  0
  1  2  1  0
  2  3  1  0
  3  4  1  0
  4  5  1  0
  5  6  2  0
  5  7  1  0
  7  8  1  0
  8  9  1  0
  9 10  1  0
M  END
>  <target>  (179) 
-2.58

$$$$

     RDKit          3D

 16 17  0  0  0  0  0  0  0  0999 V2000
    0.7616    2.7270    0.6130 C   0  0  0  0  0  0  0  0  0  0  0  0
   -0.5203    2.0872    0.0819 C   0  0  0  0  0  0  0  0  0  0  0  0
   -0.6340    0.5393    0.2340 C   0  0  0  0  0  0  0  0  0  0  0  0
   -1.9063    0.0860   -0.5383 C   0  0  0  0  0  0  0  0  0  0  0  0
   -2.1570   -1.4096   -0.3885 C   0  0  0  0  0  0  0  0  0  0  0  0
   -2.2379   -1.7968    1.0642 C   0  0  0  0  0  0  0  0  0  0  0  0
   -2.9478   -2.7167    1.4614 O   0  0  0  0  0  0  0  0  0  0  0  0
   -1.4675   -1.0740    1.9361 N   0  0  0  0  0  0  0  0  0  0  0  0
   -0.9267    0.1710    1.7070 C   0  0  0  0  0  0  0  0  0  0  0  0
   -0.6976    0.9078    2.6642 O   0  0  0  0  0  0  0  0  0  0  0  0
    0.6376   -0.1388   -0.3141 C   0  0  0  0  0  0  0  0  0  0  0  0
    0.9006   -0.1590   -1.6976 C   0  0  0  0  0  0  0  0  0  0  0  0
    2.0524   -0.7632   -2.2079 C   0  0  0  0  0  0  0  0  0  0  0  0
    2.9740   -1.3477   -1.3463 C   0  0  0  0  0  0  0  0  0  0  0  0
    2.7496   -1.3179    0.0260 C   0  0  0  0  0  0  0  0  0  0  0  0
    1.5978   -0.7139    0.5383 C   0  0  0  0  0  0  0  0  0  0  0  0
  1  2  1  0
  2  3  1  0
  3  4  1  0
  4  5  1  0
  5  6  1  0
  6  7  2  0
  6  8  1  0
  8  9  1  0
  9 10  2  0
  3 11  1  0
 11 12  2  0
 12 13  1  0
 13 14  2  0
 14 15  1  0
 15 16  2  0
  9  3  1  0
 16 11  1  0
M  END
>  <target>  (180) 
-2.3369999999999997

$$$$

     RDKit          3D

  6  5  0  0  0  0  0  0  0  0999 V2000
    2.5532    0.1704   -0.5847 C   0  0  0  0  0  0  0  0  0  0  0  0
    1.3387   -0.6165   -0.1120 C   0  0  0  0  0  0  0  0  0  0  0  0
   -0.0093    0.0585   -0.4410 C   0  0  0  0  0  0  0  0  0  0  0  0
   -0.1571    1.4021    0.2795 C   0  0  0  0  0  0  0  0  0  0  0  0
   -1.1573   -0.9078   -0.0807 C   0  0  0  0  0  0  0  0  0  0  0  0
   -2.5316   -0.4229   -0.5210 C   0  0  0  0  0  0  0  0  0  0  0  0
  1  2  1  0
  2  3  1  0
  3  4  1  0
  3  5  1  0
  5  6  1  0
M  END
>  <target>  (181) 
-3.68

$$$$

     RDKit          3D

 28 30  0  0  0  0  0  0  0  0999 V2000
    6.6641    1.9276    2.9518 C   0  0  0  0  0  0  0  0  0  0  0  0
    5.5286    1.1743    2.2822 C   0  0  0  0  0  0  0  0  0  0  0  0
    5.6855    1.3068    0.8705 O   0  0  0  0  0  0  0  0  0  0  0  0
    4.7488    0.6940    0.0855 C   0  0  0  0  0  0  0  0  0  0  0  0
    4.9352    0.8555   -1.2857 C   0  0  0  0  0  0  0  0  0  0  0  0
    4.0484    0.2829   -2.2068 C   0  0  0  0  0  0  0  0  0  0  0  0
    2.9449   -0.4732   -1.7812 C   0  0  0  0  0  0  0  0  0  0  0  0
    2.7766   -0.6248   -0.3917 C   0  0  0  0  0  0  0  0  0  0  0  0
    3.6624   -0.0508    0.5302 C   0  0  0  0  0  0  0  0  0  0  0  0
    1.9392   -1.1158   -2.7611 C   0  0  0  0  0  0  0  0  0  0  0  0
    2.3227   -0.8951   -4.2453 C   0  0  0  0  0  0  0  0  0  0  0  0
    1.8960   -2.6439   -2.5327 C   0  0  0  0  0  0  0  0  0  0  0  0
    0.5235   -0.4912   -2.5699 C   0  0  0  0  0  0  0  0  0  0  0  0
   -0.1023   -0.9481   -1.3691 O   0  0  0  0  0  0  0  0  0  0  0  0
   -1.3721   -0.3317   -1.1596 C   0  0  0  0  0  0  0  0  0  0  0  0
   -1.9762   -0.8013    0.1419 C   0  0  0  0  0  0  0  0  0  0  0  0
   -1.7105   -2.0796    0.6570 C   0  0  0  0  0  0  0  0  0  0  0  0
   -2.2891   -2.5025    1.8558 C   0  0  0  0  0  0  0  0  0  0  0  0
   -3.1596   -1.6606    2.5447 C   0  0  0  0  0  0  0  0  0  0  0  0
   -3.4642   -0.4052    2.0226 C   0  0  0  0  0  0  0  0  0  0  0  0
   -4.3070    0.3956    2.7588 O   0  0  0  0  0  0  0  0  0  0  0  0
   -5.3736    0.9664    2.1006 C   0  0  0  0  0  0  0  0  0  0  0  0
   -6.1834    0.2623    1.2055 C   0  0  0  0  0  0  0  0  0  0  0  0
   -7.2747    0.8977    0.6101 C   0  0  0  0  0  0  0  0  0  0  0  0
   -7.5642    2.2272    0.9196 C   0  0  0  0  0  0  0  0  0  0  0  0
   -6.7670    2.9225    1.8293 C   0  0  0  0  0  0  0  0  0  0  0  0
   -5.6754    2.2897    2.4253 C   0  0  0  0  0  0  0  0  0  0  0  0
   -2.8667    0.0324    0.8363 C   0  0  0  0  0  0  0  0  0  0  0  0
  1  2  1  0
  2  3  1  0
  3  4  1  0
  4  5  2  0
  5  6  1  0
  6  7  2  0
  7  8  1  0
  8  9  2  0
  7 10  1  0
 10 11  1  0
 10 12  1  0
 10 13  1  0
 13 14  1  0
 14 15  1  0
 15 16  1  0
 16 17  2  0
 17 18  1  0
 18 19  2  0
 19 20  1  0
 20 21  1  0
 21 22  1  0
 22 23  2  0
 23 24  1  0
 24 25  2  0
 25 26  1  0
 26 27  2  0
 20 28  2  0
  9  4  1  0
 27 22  1  0
 28 16  1  0
M  END
>  <target>  (182) 
-8.6

$$$$

     RDKit          3D

 19 21  0  0  0  0  0  0  0  0999 V2000
   -1.5812    1.6071    1.7509 C   0  0  0  0  0  0  0  0  0  0  0  0
   -2.2425    0.5111    0.9609 C   0  0  0  0  0  0  0  0  0  0  0  0
   -3.6045    0.2520    1.1906 C   0  0  0  0  0  0  0  0  0  0  0  0
   -4.2756   -0.7445    0.4811 C   0  0  0  0  0  0  0  0  0  0  0  0
   -3.5939   -1.5071   -0.4613 C   0  0  0  0  0  0  0  0  0  0  0  0
   -2.2381   -1.2761   -0.6911 C   0  0  0  0  0  0  0  0  0  0  0  0
   -1.5517   -0.2735    0.0152 C   0  0  0  0  0  0  0  0  0  0  0  0
   -0.1582   -0.0909   -0.2361 N   0  0  0  0  0  0  0  0  0  0  0  0
    0.3088    0.2918   -1.4850 C   0  0  0  0  0  0  0  0  0  0  0  0
   -0.6787    0.6811   -2.5661 C   0  0  0  0  0  0  0  0  0  0  0  0
    1.5662    0.3680   -1.7931 N   0  0  0  0  0  0  0  0  0  0  0  0
    2.5168    0.0750   -0.8117 C   0  0  0  0  0  0  0  0  0  0  0  0
    3.8719    0.1771   -1.1362 C   0  0  0  0  0  0  0  0  0  0  0  0
    4.8562   -0.0964   -0.1825 C   0  0  0  0  0  0  0  0  0  0  0  0
    4.4909   -0.4755    1.1083 C   0  0  0  0  0  0  0  0  0  0  0  0
    3.1417   -0.5811    1.4433 C   0  0  0  0  0  0  0  0  0  0  0  0
    2.1634   -0.3029    0.4797 C   0  0  0  0  0  0  0  0  0  0  0  0
    0.7288   -0.4194    0.7961 C   0  0  0  0  0  0  0  0  0  0  0  0
    0.4104   -0.8209    1.9146 O   0  0  0  0  0  0  0  0  0  0  0  0
  1  2  1  0
  2  3  2  0
  3  4  1  0
  4  5  2  0
  5  6  1  0
  6  7  2  0
  7  8  1  0
  8  9  1  0
  9 10  1  0
  9 11  2  0
 11 12  1  0
 12 13  2  0
 13 14  1  0
 14 15  2  0
 15 16  1  0
 16 17  2  0
 17 18  1  0
 18 19  2  0
  7  2  1  0
 17 12  1  0
 18  8  1  0
M  END
>  <target>  (183) 
-2.925

$$$$

     RDKit          3D

  4  3  0  0  0  0  0  0  0  0999 V2000
   -1.2965    1.3688   -0.0568 Cl  0  0  0  0  0  0  0  0  0  0  0  0
   -0.4249   -0.1782   -0.0008 C   0  0  0  0  0  0  0  0  0  0  0  0
    1.0186    0.0613    0.0123 C   0  0  0  0  0  0  0  0  0  0  0  0
    2.1688    0.2220    0.0236 N   0  0  0  0  0  0  0  0  0  0  0  0
  1  2  1  0
  2  3  1  0
  3  4  3  0
M  END
>  <target>  (184) 
-0.092

$$$$

     RDKit          3D

 17 17  0  0  0  0  0  0  0  0999 V2000
   -2.8817    1.3395   -1.8370 C   0  0  0  0  0  0  0  0  0  0  0  0
   -2.3706    1.4088   -0.4127 C   0  0  0  0  0  0  0  0  0  0  0  0
   -1.2090    0.6001   -0.3123 O   0  0  0  0  0  0  0  0  0  0  0  0
   -0.6516    0.1823    1.1524 P   0  0  0  0  0  0  0  0  0  0  0  0
   -0.3402    1.6267    2.4145 S   0  0  0  0  0  0  0  0  0  0  0  0
   -1.8215   -1.0918    1.6868 C   0  0  0  0  0  0  0  0  0  0  0  0
   -2.0622   -2.2000    0.6786 C   0  0  0  0  0  0  0  0  0  0  0  0
    0.6334   -0.7211    0.7760 O   0  0  0  0  0  0  0  0  0  0  0  0
    1.7808   -0.3140    0.1509 C   0  0  0  0  0  0  0  0  0  0  0  0
    1.9225    0.9325   -0.4598 C   0  0  0  0  0  0  0  0  0  0  0  0
    3.1257    1.2759   -1.0897 C   0  0  0  0  0  0  0  0  0  0  0  0
    3.2258    2.8346   -1.8297 Cl  0  0  0  0  0  0  0  0  0  0  0  0
    4.1915    0.3692   -1.1108 C   0  0  0  0  0  0  0  0  0  0  0  0
    5.6999    0.7290   -1.8718 Cl  0  0  0  0  0  0  0  0  0  0  0  0
    4.0522   -0.8806   -0.5054 C   0  0  0  0  0  0  0  0  0  0  0  0
    2.8509   -1.2191    0.1194 C   0  0  0  0  0  0  0  0  0  0  0  0
    2.7216   -2.7802    0.8498 Cl  0  0  0  0  0  0  0  0  0  0  0  0
  1  2  1  0
  2  3  1  0
  3  4  1  0
  4  5  2  0
  4  6  1  0
  6  7  1  0
  4  8  1  0
  8  9  1  0
  9 10  2  0
 10 11  1  0
 11 12  1  0
 11 13  2  0
 13 14  1  0
 13 15  1  0
 15 16  2  0
 16 17  1  0
 16  9  1  0
M  END
>  <target>  (185) 
-5.752000000000001

$$$$

     RDKit          3D

 23 26  0  0  0  0  0  0  0  0999 V2000
    2.9176   -1.5610    0.0791 C   0  0  0  0  0  0  0  0  0  0  0  0
    2.2812   -0.1474   -0.0094 C   0  0  0  0  0  0  0  0  0  0  0  0
    2.9325    0.5961   -1.2142 C   0  0  0  0  0  0  0  0  0  0  0  0
    4.3808    0.9996   -0.9722 C   0  0  0  0  0  0  0  0  0  0  0  0
    4.4663    1.8497    0.2696 C   0  0  0  0  0  0  0  0  0  0  0  0
    5.3002    2.7419    0.4002 O   0  0  0  0  0  0  0  0  0  0  0  0
    3.5608    1.5282    1.3981 C   0  0  0  0  0  0  0  0  0  0  0  0
    2.6022    0.5902    1.2921 C   0  0  0  0  0  0  0  0  0  0  0  0
    1.8285    0.1747    2.5187 C   0  0  0  0  0  0  0  0  0  0  0  0
    0.3307    0.1266    2.2589 C   0  0  0  0  0  0  0  0  0  0  0  0
   -0.0110   -0.7818    1.0645 C   0  0  0  0  0  0  0  0  0  0  0  0
    0.7180   -0.3128   -0.2275 C   0  0  0  0  0  0  0  0  0  0  0  0
    0.0012    0.9230   -0.8129 C   0  0  0  0  0  0  0  0  0  0  0  0
   -1.4805    0.6571   -1.0910 C   0  0  0  0  0  0  0  0  0  0  0  0
   -2.2860    0.2077    0.1491 C   0  0  0  0  0  0  0  0  0  0  0  0
   -2.5649    1.4264    1.0524 C   0  0  0  0  0  0  0  0  0  0  0  0
   -1.5402   -0.9309    0.8940 C   0  0  0  0  0  0  0  0  0  0  0  0
   -1.9042   -2.2090    0.1053 C   0  0  0  0  0  0  0  0  0  0  0  0
   -3.1916   -1.9111   -0.6669 C   0  0  0  0  0  0  0  0  0  0  0  0
   -3.6220   -0.5088   -0.2270 C   0  0  0  0  0  0  0  0  0  0  0  0
   -4.4343   -0.6562    0.9413 O   0  0  0  0  0  0  0  0  0  0  0  0
   -4.4114    0.1781   -1.2620 C   0  0  0  0  0  0  0  0  0  0  0  0
   -5.0597    0.7405   -2.1025 C   0  0  0  0  0  0  0  0  0  0  0  0
  1  2  1  0
  2  3  1  0
  3  4  1  0
  4  5  1  0
  5  6  2  0
  5  7  1  0
  7  8  2  0
  8  9  1  0
  9 10  1  0
 10 11  1  0
 11 12  1  0
 12 13  1  0
 13 14  1  0
 14 15  1  0
 15 16  1  0
 15 17  1  0
 17 18  1  0
 18 19  1  0
 19 20  1  0
 20 21  1  0
 20 22  1  0
 22 23  3  0
  8  2  1  0
 12  2  1  0
 17 11  1  0
 20 15  1  0
M  END
>  <target>  (186) 
-5.66

$$$$

     RDKit          3D

  6  6  0  0  0  0  0  0  0  0999 V2000
    0.7009    0.7900    0.0027 C   0  0  0  0  0  0  0  0  0  0  0  0
   -0.6860    0.8030    0.0080 C   0  0  0  0  0  0  0  0  0  0  0  0
   -1.3460   -0.4106    0.0023 C   0  0  0  0  0  0  0  0  0  0  0  0
   -0.6956   -1.5921   -0.0082 N   0  0  0  0  0  0  0  0  0  0  0  0
    0.6657   -1.6048   -0.0133 N   0  0  0  0  0  0  0  0  0  0  0  0
    1.3381   -0.4357   -0.0079 C   0  0  0  0  0  0  0  0  0  0  0  0
  1  2  2  0
  2  3  1  0
  3  4  2  0
  4  5  1  0
  5  6  2  0
  6  1  1  0
M  END
>  <target>  (187) 
1.1

$$$$

     RDKit          3D

 10 10  0  0  0  0  0  0  0  0999 V2000
   -0.1194    3.1497   -0.1034 Cl  0  0  0  0  0  0  0  0  0  0  0  0
   -0.0543    1.4323   -0.0470 C   0  0  0  0  0  0  0  0  0  0  0  0
   -1.2352    0.6967   -0.0430 C   0  0  0  0  0  0  0  0  0  0  0  0
   -1.1830   -0.7002    0.0028 C   0  0  0  0  0  0  0  0  0  0  0  0
   -2.6944   -1.5430    0.0047 Cl  0  0  0  0  0  0  0  0  0  0  0  0
    0.0518   -1.3668    0.0449 C   0  0  0  0  0  0  0  0  0  0  0  0
    0.1175   -3.0996    0.1017 Cl  0  0  0  0  0  0  0  0  0  0  0  0
    1.2325   -0.6074    0.0401 C   0  0  0  0  0  0  0  0  0  0  0  0
    2.8034   -1.3318    0.0896 Cl  0  0  0  0  0  0  0  0  0  0  0  0
    1.1788    0.7894   -0.0057 C   0  0  0  0  0  0  0  0  0  0  0  0
  1  2  1  0
  2  3  2  0
  3  4  1  0
  4  5  1  0
  4  6  2  0
  6  7  1  0
  6  8  1  0
  8  9  1  0
  8 10  2  0
 10  2  1  0
M  END
>  <target>  (188) 
-4.63

$$$$

     RDKit          3D

 30 35  0  0  0  0  0  0  0  0999 V2000
   -4.3642    2.8029    0.2451 C   0  0  0  0  0  0  0  0  0  0  0  0
   -5.5433    2.9995   -0.7167 C   0  0  0  0  0  0  0  0  0  0  0  0
   -5.0480    3.2325   -2.0361 O   0  0  0  0  0  0  0  0  0  0  0  0
   -6.4916    1.8007   -0.7155 C   0  0  0  0  0  0  0  0  0  0  0  0
   -5.7475    0.4857   -0.9648 C   0  0  0  0  0  0  0  0  0  0  0  0
   -4.5733    0.2320    0.0173 C   0  0  0  0  0  0  0  0  0  0  0  0
   -5.1249   -0.0597    1.4317 C   0  0  0  0  0  0  0  0  0  0  0  0
   -3.7973   -1.0180   -0.4903 C   0  0  0  0  0  0  0  0  0  0  0  0
   -2.4006   -1.1293    0.1339 C   0  0  0  0  0  0  0  0  0  0  0  0
   -1.6883   -2.4171   -0.3028 C   0  0  0  0  0  0  0  0  0  0  0  0
   -0.1574   -2.3060   -0.2933 C   0  0  0  0  0  0  0  0  0  0  0  0
    0.4142   -1.3427    0.7842 C   0  0  0  0  0  0  0  0  0  0  0  0
    0.1291   -1.9704    2.1686 C   0  0  0  0  0  0  0  0  0  0  0  0
    1.9512   -1.0312    0.5935 C   0  0  0  0  0  0  0  0  0  0  0  0
    2.5765   -0.4663    1.9058 C   0  0  0  0  0  0  0  0  0  0  0  0
    2.8501   -2.1672    0.0504 C   0  0  0  0  0  0  0  0  0  0  0  0
    4.2181   -1.6430   -0.4417 C   0  0  0  0  0  0  0  0  0  0  0  0
    5.0537   -1.4588    0.7083 O   0  0  0  0  0  0  0  0  0  0  0  0
    6.3411   -0.9346    0.3996 C   0  0  0  0  0  0  0  0  0  0  0  0
    6.2230    0.4412   -0.2532 C   0  0  0  0  0  0  0  0  0  0  0  0
    7.5998    1.0396   -0.5235 C   0  0  0  0  0  0  0  0  0  0  0  0
    5.4133    0.3200   -1.5476 C   0  0  0  0  0  0  0  0  0  0  0  0
    4.0652   -0.3556   -1.3004 C   0  0  0  0  0  0  0  0  0  0  0  0
    3.1787    0.6213   -0.7114 O   0  0  0  0  0  0  0  0  0  0  0  0
    1.8984    0.0501   -0.4942 C   0  0  0  0  0  0  0  0  0  0  0  0
    0.8381    1.0129    0.0104 C   0  0  0  0  0  0  0  0  0  0  0  0
   -0.2491    0.0919    0.6379 C   0  0  0  0  0  0  0  0  0  0  0  0
   -1.5514    0.1031   -0.2074 C   0  0  0  0  0  0  0  0  0  0  0  0
   -2.3303    1.3877   -0.0381 C   0  0  0  0  0  0  0  0  0  0  0  0
   -3.6712    1.4623    0.0754 C   0  0  0  0  0  0  0  0  0  0  0  0
  1  2  1  0
  2  3  1  0
  2  4  1  0
  4  5  1  0
  5  6  1  0
  6  7  1  0
  6  8  1  0
  8  9  1  0
  9 10  1  0
 10 11  1  0
 11 12  1  0
 12 13  1  0
 12 14  1  0
 14 15  1  0
 14 16  1  0
 16 17  1  0
 17 18  1  0
 18 19  1  0
 19 20  1  0
 20 21  1  0
 20 22  1  0
 22 23  1  0
 23 24  1  0
 24 25  1  0
 25 26  1  0
 26 27  1  0
 27 28  1  0
 28 29  1  0
 29 30  2  0
 30  1  1  0
 30  6  1  0
 28  9  1  0
 27 12  1  0
 25 14  1  0
 23 17  1  0
M  END
>  <target>  (189) 
-7.32

$$$$

     RDKit          3D

  8  8  0  0  0  0  0  0  0  0999 V2000
    2.2084    0.0442   -0.1169 N   0  0  0  0  0  0  0  0  0  0  0  0
    0.7955    0.0926   -0.1745 C   0  0  0  0  0  0  0  0  0  0  0  0
    0.1081    1.3048   -0.2155 C   0  0  0  0  0  0  0  0  0  0  0  0
   -1.2873    1.3215   -0.1144 C   0  0  0  0  0  0  0  0  0  0  0  0
   -1.9971    0.1312    0.0676 C   0  0  0  0  0  0  0  0  0  0  0  0
   -1.3150   -1.0808    0.1585 C   0  0  0  0  0  0  0  0  0  0  0  0
    0.0683   -1.0831    0.0507 C   0  0  0  0  0  0  0  0  0  0  0  0
    0.7463   -2.2677    0.1499 O   0  0  0  0  0  0  0  0  0  0  0  0
  1  2  1  0
  2  3  2  0
  3  4  1  0
  4  5  2  0
  5  6  1  0
  6  7  2  0
  7  8  1  0
  7  2  1  0
M  END
>  <target>  (190) 
-0.72

$$$$

     RDKit          3D

 13 12  0  0  0  0  0  0  0  0999 V2000
    5.7635   -0.8050    0.4173 C   0  0  0  0  0  0  0  0  0  0  0  0
    4.9642    0.3669   -0.1299 C   0  0  0  0  0  0  0  0  0  0  0  0
    3.5076    0.3168    0.3334 C   0  0  0  0  0  0  0  0  0  0  0  0
    2.7085    1.4968   -0.2241 C   0  0  0  0  0  0  0  0  0  0  0  0
    1.2711    1.5611    0.3001 C   0  0  0  0  0  0  0  0  0  0  0  0
    0.4019    0.3893   -0.1615 C   0  0  0  0  0  0  0  0  0  0  0  0
   -1.0486    0.5633    0.2930 C   0  0  0  0  0  0  0  0  0  0  0  0
   -1.9185   -0.6069   -0.1628 C   0  0  0  0  0  0  0  0  0  0  0  0
   -3.3550   -0.4483    0.2782 C   0  0  0  0  0  0  0  0  0  0  0  0
   -3.7999    0.4892    0.9242 O   0  0  0  0  0  0  0  0  0  0  0  0
   -4.0799   -1.5167   -0.1613 O   0  0  0  0  0  0  0  0  0  0  0  0
   -5.4725   -1.5116    0.1856 C   0  0  0  0  0  0  0  0  0  0  0  0
   -6.2674   -0.7397   -0.8507 C   0  0  0  0  0  0  0  0  0  0  0  0
  1  2  1  0
  2  3  1  0
  3  4  1  0
  4  5  1  0
  5  6  1  0
  6  7  1  0
  7  8  1  0
  8  9  1  0
  9 10  2  0
  9 11  1  0
 11 12  1  0
 12 13  1  0
M  END
>  <target>  (191) 
-3.8

$$$$

     RDKit          3D

 20 20  0  0  0  0  0  0  0  0999 V2000
    1.9943    3.3380    1.5052 C   0  0  0  0  0  0  0  0  0  0  0  0
    0.7160    3.0822    0.9374 O   0  0  0  0  0  0  0  0  0  0  0  0
    0.8003    2.4030   -0.3082 C   0  0  0  0  0  0  0  0  0  0  0  0
    1.2461    0.9291   -0.2317 C   0  0  0  0  0  0  0  0  0  0  0  0
    2.4509    0.6496   -0.2378 O   0  0  0  0  0  0  0  0  0  0  0  0
    0.2630   -0.0656   -0.1646 N   0  0  0  0  0  0  0  0  0  0  0  0
    0.7384   -1.4586   -0.0143 C   0  0  0  0  0  0  0  0  0  0  0  0
   -0.3199   -2.5216    0.2965 C   0  0  0  0  0  0  0  0  0  0  0  0
    1.4377   -1.8880   -1.3146 C   0  0  0  0  0  0  0  0  0  0  0  0
    1.1291   -1.5235   -2.4436 O   0  0  0  0  0  0  0  0  0  0  0  0
    2.4275   -2.7893   -1.0349 O   0  0  0  0  0  0  0  0  0  0  0  0
    3.1508   -3.2283   -2.1845 C   0  0  0  0  0  0  0  0  0  0  0  0
   -1.0733    0.2485    0.1987 C   0  0  0  0  0  0  0  0  0  0  0  0
   -2.0555    0.3059   -0.8149 C   0  0  0  0  0  0  0  0  0  0  0  0
   -1.7305    0.0419   -2.2606 C   0  0  0  0  0  0  0  0  0  0  0  0
   -3.3835    0.5857   -0.4627 C   0  0  0  0  0  0  0  0  0  0  0  0
   -3.7316    0.8205    0.8645 C   0  0  0  0  0  0  0  0  0  0  0  0
   -2.7583    0.7727    1.8595 C   0  0  0  0  0  0  0  0  0  0  0  0
   -1.4184    0.4955    1.5452 C   0  0  0  0  0  0  0  0  0  0  0  0
   -0.4373    0.4004    2.6823 C   0  0  0  0  0  0  0  0  0  0  0  0
  1  2  1  0
  2  3  1  0
  3  4  1  0
  4  5  2  0
  4  6  1  0
  6  7  1  0
  7  8  1  0
  7  9  1  0
  9 10  2  0
  9 11  1  0
 11 12  1  0
  6 13  1  0
 13 14  2  0
 14 15  1  0
 14 16  1  0
 16 17  2  0
 17 18  1  0
 18 19  2  0
 19 20  1  0
 19 13  1  0
M  END
>  <target>  (192) 
-1.601

$$$$

     RDKit          3D

 15 15  0  0  0  0  0  0  0  0999 V2000
    3.4879   -2.0616   -0.6955 C   0  0  0  0  0  0  0  0  0  0  0  0
    2.9717   -1.1710    0.3063 N   0  0  0  0  0  0  0  0  0  0  0  0
    2.0976   -0.1654   -0.0091 C   0  0  0  0  0  0  0  0  0  0  0  0
    1.7979    0.1562   -1.1516 O   0  0  0  0  0  0  0  0  0  0  0  0
    1.6309    0.4076    1.1611 O   0  0  0  0  0  0  0  0  0  0  0  0
    0.6201    1.3496    0.9397 C   0  0  0  0  0  0  0  0  0  0  0  0
    0.9642    2.7008    0.9881 C   0  0  0  0  0  0  0  0  0  0  0  0
   -0.0280    3.6599    0.8052 C   0  0  0  0  0  0  0  0  0  0  0  0
   -1.3493    3.2613    0.5956 C   0  0  0  0  0  0  0  0  0  0  0  0
   -1.6875    1.9021    0.5671 C   0  0  0  0  0  0  0  0  0  0  0  0
   -0.7012    0.9298    0.7341 C   0  0  0  0  0  0  0  0  0  0  0  0
   -0.9242   -0.4197    0.7619 O   0  0  0  0  0  0  0  0  0  0  0  0
   -1.9932   -0.9446   -0.0342 C   0  0  0  0  0  0  0  0  0  0  0  0
   -2.1919   -2.3919    0.4124 C   0  0  0  0  0  0  0  0  0  0  0  0
   -1.6363   -0.9058   -1.5186 C   0  0  0  0  0  0  0  0  0  0  0  0
  1  2  1  0
  2  3  1  0
  3  4  2  0
  3  5  1  0
  5  6  1  0
  6  7  2  0
  7  8  1  0
  8  9  2  0
  9 10  1  0
 10 11  2  0
 11 12  1  0
 12 13  1  0
 13 14  1  0
 13 15  1  0
 11  6  1  0
M  END
>  <target>  (193) 
-2.05

$$$$

     RDKit          3D

  5  4  0  0  0  0  0  0  0  0999 V2000
   -1.9241    0.0635   -0.3134 C   0  0  0  0  0  0  0  0  0  0  0  0
   -0.5889    0.3121    0.3762 C   0  0  0  0  0  0  0  0  0  0  0  0
    0.6058   -0.2942   -0.3692 C   0  0  0  0  0  0  0  0  0  0  0  0
    1.8899   -0.1461    0.4383 C   0  0  0  0  0  0  0  0  0  0  0  0
    0.8321    0.4867   -1.9634 Cl  0  0  0  0  0  0  0  0  0  0  0  0
  1  2  1  0
  2  3  1  0
  3  4  1  0
  3  5  1  0
M  END
>  <target>  (194) 
-1.96

$$$$

     RDKit          3D

 11 12  0  0  0  0  0  0  0  0999 V2000
    3.5344   -0.5615    0.4747 O   0  0  0  0  0  0  0  0  0  0  0  0
    2.2610   -0.1345    0.2366 C   0  0  0  0  0  0  0  0  0  0  0  0
    2.0003    1.1667   -0.1743 C   0  0  0  0  0  0  0  0  0  0  0  0
    0.6804    1.5601   -0.4064 C   0  0  0  0  0  0  0  0  0  0  0  0
   -0.3816    0.6570   -0.2292 C   0  0  0  0  0  0  0  0  0  0  0  0
   -1.7136    1.0379   -0.4586 C   0  0  0  0  0  0  0  0  0  0  0  0
   -2.7571    0.1284   -0.2779 C   0  0  0  0  0  0  0  0  0  0  0  0
   -2.4830   -1.1726    0.1341 C   0  0  0  0  0  0  0  0  0  0  0  0
   -1.1648   -1.5678    0.3666 C   0  0  0  0  0  0  0  0  0  0  0  0
   -0.1034   -0.6655    0.1896 C   0  0  0  0  0  0  0  0  0  0  0  0
    1.2274   -1.0473    0.4192 C   0  0  0  0  0  0  0  0  0  0  0  0
  1  2  1  0
  2  3  2  0
  3  4  1  0
  4  5  2  0
  5  6  1  0
  6  7  2  0
  7  8  1  0
  8  9  2  0
  9 10  1  0
 10 11  2  0
 11  2  1  0
 10  5  1  0
M  END
>  <target>  (195) 
-2.28

$$$$

     RDKit          3D

 22 23  0  0  0  0  0  0  0  0999 V2000
   -5.7836    0.5531   -0.1780 C   0  0  0  0  0  0  0  0  0  0  0  0
   -4.4515    0.3632    0.5402 C   0  0  0  0  0  0  0  0  0  0  0  0
   -4.6324    0.4863    2.0488 C   0  0  0  0  0  0  0  0  0  0  0  0
   -3.9851   -0.9665    0.2562 O   0  0  0  0  0  0  0  0  0  0  0  0
   -2.8213   -1.0042   -0.4658 C   0  0  0  0  0  0  0  0  0  0  0  0
   -1.6412   -0.4580    0.0576 C   0  0  0  0  0  0  0  0  0  0  0  0
   -0.4147   -0.5241   -0.6349 C   0  0  0  0  0  0  0  0  0  0  0  0
   -0.4220   -1.1861   -1.8862 C   0  0  0  0  0  0  0  0  0  0  0  0
    0.9492   -1.3340   -2.9390 Cl  0  0  0  0  0  0  0  0  0  0  0  0
   -1.6012   -1.7585   -2.3944 C   0  0  0  0  0  0  0  0  0  0  0  0
   -2.7934   -1.6761   -1.6836 C   0  0  0  0  0  0  0  0  0  0  0  0
   -4.2093   -2.3990   -2.3522 Cl  0  0  0  0  0  0  0  0  0  0  0  0
    0.7417    0.0578   -0.0420 N   0  0  0  0  0  0  0  0  0  0  0  0
    1.9849   -0.1688   -0.5527 N   0  0  0  0  0  0  0  0  0  0  0  0
    2.7677    0.4820    0.2446 C   0  0  0  0  0  0  0  0  0  0  0  0
    2.1625    1.1282    1.2592 O   0  0  0  0  0  0  0  0  0  0  0  0
    0.8353    0.8609    1.0849 C   0  0  0  0  0  0  0  0  0  0  0  0
   -0.0312    1.3008    1.8227 O   0  0  0  0  0  0  0  0  0  0  0  0
    4.2702    0.5855    0.1622 C   0  0  0  0  0  0  0  0  0  0  0  0
    4.6659    2.0643    0.0618 C   0  0  0  0  0  0  0  0  0  0  0  0
    4.8794   -0.0428    1.4218 C   0  0  0  0  0  0  0  0  0  0  0  0
    4.7894   -0.1595   -1.0768 C   0  0  0  0  0  0  0  0  0  0  0  0
  1  2  1  0
  2  3  1  0
  2  4  1  0
  4  5  1  0
  5  6  2  0
  6  7  1  0
  7  8  2  0
  8  9  1  0
  8 10  1  0
 10 11  2  0
 11 12  1  0
  7 13  1  0
 13 14  1  0
 14 15  2  0
 15 16  1  0
 16 17  1  0
 17 18  2  0
 15 19  1  0
 19 20  1  0
 19 21  1  0
 19 22  1  0
 11  5  1  0
 17 13  1  0
M  END
>  <target>  (196) 
-5.696000000000001

$$$$

     RDKit          3D

  6  5  0  0  0  0  0  0  0  0999 V2000
   -2.4226   -0.0894    0.5061 C   0  0  0  0  0  0  0  0  0  0  0  0
   -1.2757    0.4488   -0.3344 C   0  0  0  0  0  0  0  0  0  0  0  0
    0.0774   -0.0294    0.1920 C   0  0  0  0  0  0  0  0  0  0  0  0
    1.2278    0.5136   -0.6554 C   0  0  0  0  0  0  0  0  0  0  0  0
    2.5267    0.0506   -0.1448 C   0  0  0  0  0  0  0  0  0  0  0  0
    3.5890   -0.3258    0.2697 C   0  0  0  0  0  0  0  0  0  0  0  0
  1  2  1  0
  2  3  1  0
  3  4  1  0
  4  5  1  0
  5  6  3  0
M  END
>  <target>  (197) 
-2.36

$$$$

     RDKit          3D

  9  8  0  0  0  0  0  0  0  0999 V2000
   -4.3275    0.1706   -0.0933 C   0  0  0  0  0  0  0  0  0  0  0  0
   -2.9706    0.7563   -0.4502 C   0  0  0  0  0  0  0  0  0  0  0  0
   -1.8317   -0.1721   -0.0294 C   0  0  0  0  0  0  0  0  0  0  0  0
   -0.4686    0.4207   -0.3901 C   0  0  0  0  0  0  0  0  0  0  0  0
    0.6713   -0.5084    0.0310 C   0  0  0  0  0  0  0  0  0  0  0  0
    2.0346    0.0843   -0.3297 C   0  0  0  0  0  0  0  0  0  0  0  0
    3.1740   -0.8438    0.0909 C   0  0  0  0  0  0  0  0  0  0  0  0
    4.4818   -0.2693   -0.2581 C   0  0  0  0  0  0  0  0  0  0  0  0
    5.5513    0.1971   -0.5418 C   0  0  0  0  0  0  0  0  0  0  0  0
  1  2  1  0
  2  3  1  0
  3  4  1  0
  4  5  1  0
  5  6  1  0
  6  7  1  0
  7  8  1  0
  8  9  3  0
M  END
>  <target>  (198) 
-4.24

$$$$

     RDKit          3D

  8  8  0  0  0  0  0  0  0  0999 V2000
   -2.2038    0.1780   -0.0564 C   0  0  0  0  0  0  0  0  0  0  0  0
   -0.7061    0.0643   -0.0196 C   0  0  0  0  0  0  0  0  0  0  0  0
    0.0803    1.2031   -0.2568 C   0  0  0  0  0  0  0  0  0  0  0  0
    1.4745    1.1269   -0.2289 C   0  0  0  0  0  0  0  0  0  0  0  0
    2.1027   -0.0873    0.0362 C   0  0  0  0  0  0  0  0  0  0  0  0
    1.3358   -1.2272    0.2737 C   0  0  0  0  0  0  0  0  0  0  0  0
   -0.0600   -1.1532    0.2463 C   0  0  0  0  0  0  0  0  0  0  0  0
   -0.9515   -2.6023    0.5490 Cl  0  0  0  0  0  0  0  0  0  0  0  0
  1  2  1  0
  2  3  2  0
  3  4  1  0
  4  5  2  0
  5  6  1  0
  6  7  2  0
  7  8  1  0
  7  2  1  0
M  END
>  <target>  (199) 
-3.52

$$$$

     RDKit          3D

  7  6  0  0  0  0  0  0  0  0999 V2000
   -1.8030   -1.2528    0.1142 C   0  0  0  0  0  0  0  0  0  0  0  0
   -1.1915    0.1043   -0.2192 C   0  0  0  0  0  0  0  0  0  0  0  0
   -2.1408    1.2268    0.1823 C   0  0  0  0  0  0  0  0  0  0  0  0
    0.0166    0.2868    0.5239 O   0  0  0  0  0  0  0  0  0  0  0  0
    1.1817   -0.2725   -0.0882 C   0  0  0  0  0  0  0  0  0  0  0  0
    1.7723    0.7233   -1.0813 C   0  0  0  0  0  0  0  0  0  0  0  0
    2.1791   -0.5651    1.0264 C   0  0  0  0  0  0  0  0  0  0  0  0
  1  2  1  0
  2  3  1  0
  2  4  1  0
  4  5  1  0
  5  6  1  0
  5  7  1  0
M  END
>  <target>  (200) 
-1.1

$$$$

     RDKit          3D

 17 18  0  0  0  0  0  0  0  0999 V2000
    4.7743    1.3469    0.3311 N   0  0  0  0  0  0  0  0  0  0  0  0
    3.6888    0.5099    0.0501 C   0  0  0  0  0  0  0  0  0  0  0  0
    3.3997    0.1538   -1.2715 C   0  0  0  0  0  0  0  0  0  0  0  0
    2.2477   -0.5739   -1.5811 C   0  0  0  0  0  0  0  0  0  0  0  0
    1.3585   -0.9126   -0.5607 C   0  0  0  0  0  0  0  0  0  0  0  0
    1.6065   -0.5264    0.7579 C   0  0  0  0  0  0  0  0  0  0  0  0
    2.7595    0.2055    1.0508 C   0  0  0  0  0  0  0  0  0  0  0  0
   -0.1377   -1.7948   -0.9401 S   0  0  0  0  0  0  0  0  0  0  0  0
   -0.2904   -1.8187   -2.3833 O   0  0  0  0  0  0  0  0  0  0  0  0
   -0.0814   -3.0274   -0.1757 O   0  0  0  0  0  0  0  0  0  0  0  0
   -1.4918   -0.8246   -0.3188 C   0  0  0  0  0  0  0  0  0  0  0  0
   -2.3980   -1.3858    0.5815 C   0  0  0  0  0  0  0  0  0  0  0  0
   -3.4337   -0.5979    1.0906 C   0  0  0  0  0  0  0  0  0  0  0  0
   -3.5938    0.7292    0.6783 C   0  0  0  0  0  0  0  0  0  0  0  0
   -4.5525    1.5445    1.2899 N   0  0  0  0  0  0  0  0  0  0  0  0
   -2.6450    1.2877   -0.1851 C   0  0  0  0  0  0  0  0  0  0  0  0
   -1.6077    0.5115   -0.7070 C   0  0  0  0  0  0  0  0  0  0  0  0
  1  2  1  0
  2  3  2  0
  3  4  1  0
  4  5  2  0
  5  6  1  0
  6  7  2  0
  5  8  1  0
  8  9  2  0
  8 10  2  0
  8 11  1  0
 11 12  2  0
 12 13  1  0
 13 14  2  0
 14 15  1  0
 14 16  1  0
 16 17  2  0
  7  2  1  0
 17 11  1  0
M  END
>  <target>  (201) 
-3.094

$$$$

     RDKit          3D

  3  2  0  0  0  0  0  0  0  0999 V2000
   -1.0470    0.1105   -0.1237 C   0  0  0  0  0  0  0  0  0  0  0  0
    0.1996   -0.6478   -0.0059 N   0  0  0  0  0  0  0  0  0  0  0  0
    1.2924    0.2797    0.1826 N   0  0  0  0  0  0  0  0  0  0  0  0
  1  2  1  0
  2  3  1  0
M  END
>  <target>  (202) 
1.34

$$$$

     RDKit          3D

  3  2  0  0  0  0  0  0  0  0999 V2000
   -0.9550    0.0268   -0.3206 C   0  0  0  0  0  0  0  0  0  0  0  0
    0.5072   -0.0142   -0.2843 C   0  0  0  0  0  0  0  0  0  0  0  0
    1.7071   -0.0479   -0.2546 C   0  0  0  0  0  0  0  0  0  0  0  0
  1  2  1  0
  2  3  3  0
M  END
>  <target>  (203) 
-0.41

$$$$

     RDKit          3D

 19 19  0  0  0  0  0  0  0  0999 V2000
   -2.8741   -2.2169    3.2620 C   0  0  0  0  0  0  0  0  0  0  0  0
   -2.6301   -1.9722    1.7870 C   0  0  0  0  0  0  0  0  0  0  0  0
   -2.4766   -0.5776    1.5809 O   0  0  0  0  0  0  0  0  0  0  0  0
   -1.9441   -0.0693    0.1358 P   0  0  0  0  0  0  0  0  0  0  0  0
   -3.0856   -0.4565   -1.3866 S   0  0  0  0  0  0  0  0  0  0  0  0
   -1.6472    1.4932    0.4502 O   0  0  0  0  0  0  0  0  0  0  0  0
   -2.7452    2.3405    0.7394 C   0  0  0  0  0  0  0  0  0  0  0  0
   -2.2130    3.6498    1.2852 C   0  0  0  0  0  0  0  0  0  0  0  0
   -0.4325   -0.6948    0.1084 O   0  0  0  0  0  0  0  0  0  0  0  0
    0.3964   -0.2449   -0.9447 N   0  0  0  0  0  0  0  0  0  0  0  0
    1.5777   -0.7910   -0.9333 C   0  0  0  0  0  0  0  0  0  0  0  0
    1.8796   -1.7543    0.1081 C   0  0  0  0  0  0  0  0  0  0  0  0
    2.1433   -2.5328    0.9310 N   0  0  0  0  0  0  0  0  0  0  0  0
    2.6135   -0.4662   -1.9450 C   0  0  0  0  0  0  0  0  0  0  0  0
    3.8951   -1.0350   -1.9067 C   0  0  0  0  0  0  0  0  0  0  0  0
    4.8408   -0.7011   -2.8803 C   0  0  0  0  0  0  0  0  0  0  0  0
    4.5162    0.1983   -3.8943 C   0  0  0  0  0  0  0  0  0  0  0  0
    3.2457    0.7679   -3.9400 C   0  0  0  0  0  0  0  0  0  0  0  0
    2.2969    0.4383   -2.9699 C   0  0  0  0  0  0  0  0  0  0  0  0
  1  2  1  0
  2  3  1  0
  3  4  1  0
  4  5  2  0
  4  6  1  0
  6  7  1  0
  7  8  1  0
  4  9  1  0
  9 10  1  0
 10 11  2  3
 11 12  1  0
 12 13  3  0
 11 14  1  0
 14 15  2  0
 15 16  1  0
 16 17  2  0
 17 18  1  0
 18 19  2  0
 19 14  1  0
M  END
>  <target>  (204) 
-4.862

$$$$

     RDKit          3D

 17 16  0  0  0  0  0  0  0  0999 V2000
    5.1060    1.7211   -0.9963 C   0  0  0  0  0  0  0  0  0  0  0  0
    4.5396    1.0438    0.2413 C   0  0  0  0  0  0  0  0  0  0  0  0
    3.1692    0.6168   -0.0043 N   0  0  0  0  0  0  0  0  0  0  0  0
    2.3510   -0.1509    1.2054 P   0  0  0  0  0  0  0  0  0  0  0  0
    1.7074    0.9667    2.6579 S   0  0  0  0  0  0  0  0  0  0  0  0
    3.3543   -1.3392    1.6624 O   0  0  0  0  0  0  0  0  0  0  0  0
    2.8955   -2.3044    2.5880 C   0  0  0  0  0  0  0  0  0  0  0  0
    1.1894   -1.0183    0.4614 O   0  0  0  0  0  0  0  0  0  0  0  0
    0.1443   -0.4825   -0.2810 C   0  0  0  0  0  0  0  0  0  0  0  0
   -1.0740   -0.4019    0.2753 C   0  0  0  0  0  0  0  0  0  0  0  0
   -2.2665    0.1534   -0.3989 C   0  0  0  0  0  0  0  0  0  0  0  0
   -2.2706    0.7616   -1.4547 O   0  0  0  0  0  0  0  0  0  0  0  0
   -3.3439   -0.1307    0.3752 O   0  0  0  0  0  0  0  0  0  0  0  0
   -4.6130    0.3419   -0.1135 C   0  0  0  0  0  0  0  0  0  0  0  0
   -5.5332    0.4868    1.0924 C   0  0  0  0  0  0  0  0  0  0  0  0
   -5.1826   -0.6621   -1.1094 C   0  0  0  0  0  0  0  0  0  0  0  0
    0.4953   -0.1391   -1.6975 C   0  0  0  0  0  0  0  0  0  0  0  0
  1  2  1  0
  2  3  1  0
  3  4  1  0
  4  5  2  0
  4  6  1  0
  6  7  1  0
  4  8  1  0
  8  9  1  0
  9 10  2  3
 10 11  1  0
 11 12  2  0
 11 13  1  0
 13 14  1  0
 14 15  1  0
 14 16  1  0
  9 17  1  0
M  END
>  <target>  (205) 
-3.408

$$$$

     RDKit          3D

  4  3  0  0  0  0  0  0  0  0999 V2000
   -1.2089   -0.1851    0.0778 C   0  0  0  0  0  0  0  0  0  0  0  0
   -0.0748    0.5100   -0.0604 C   0  0  0  0  0  0  0  0  0  0  0  0
    1.2358   -0.1687   -0.0348 C   0  0  0  0  0  0  0  0  0  0  0  0
    2.2796    0.4588   -0.1604 O   0  0  0  0  0  0  0  0  0  0  0  0
  1  2  2  0
  2  3  1  0
  3  4  2  0
M  END
>  <target>  (206) 
0.57

$$$$

     RDKit          3D

 10 11  0  0  0  0  0  0  0  0999 V2000
   -0.7652    2.3007    0.7012 O   0  0  0  0  0  0  0  0  0  0  0  0
   -0.7701    1.1211    0.3724 C   0  0  0  0  0  0  0  0  0  0  0  0
   -1.9199    0.3802    0.2544 N   0  0  0  0  0  0  0  0  0  0  0  0
   -1.9109   -0.9472   -0.1168 C   0  0  0  0  0  0  0  0  0  0  0  0
   -0.8711   -1.6658   -0.3977 N   0  0  0  0  0  0  0  0  0  0  0  0
    0.3328   -0.9644   -0.2949 C   0  0  0  0  0  0  0  0  0  0  0  0
    1.5838   -1.4517   -0.5275 N   0  0  0  0  0  0  0  0  0  0  0  0
    2.3901   -0.4337   -0.3056 C   0  0  0  0  0  0  0  0  0  0  0  0
    1.6996    0.6910    0.0616 N   0  0  0  0  0  0  0  0  0  0  0  0
    0.3794    0.3528    0.0692 C   0  0  0  0  0  0  0  0  0  0  0  0
  1  2  2  0
  2  3  1  0
  3  4  1  0
  4  5  2  0
  5  6  1  0
  6  7  1  0
  7  8  2  0
  8  9  1  0
  9 10  1  0
 10  2  1  0
 10  6  2  0
M  END
>  <target>  (207) 
-2.296

$$$$

     RDKit          3D

 11 12  0  0  0  0  0  0  0  0999 V2000
    3.1910    1.0430    0.8978 O   0  0  0  0  0  0  0  0  0  0  0  0
    2.0632    0.4747    0.3867 C   0  0  0  0  0  0  0  0  0  0  0  0
    2.1252   -0.5187   -0.5796 C   0  0  0  0  0  0  0  0  0  0  0  0
    0.9363   -1.0684   -1.0706 C   0  0  0  0  0  0  0  0  0  0  0  0
   -0.3079   -0.6474   -0.6173 C   0  0  0  0  0  0  0  0  0  0  0  0
   -1.4202   -1.2092   -1.1226 N   0  0  0  0  0  0  0  0  0  0  0  0
   -2.6141   -0.7766   -0.6600 C   0  0  0  0  0  0  0  0  0  0  0  0
   -2.7604    0.2069    0.2999 C   0  0  0  0  0  0  0  0  0  0  0  0
   -1.6096    0.7856    0.8202 C   0  0  0  0  0  0  0  0  0  0  0  0
   -0.3527    0.3645    0.3665 C   0  0  0  0  0  0  0  0  0  0  0  0
    0.8377    0.9210    0.8639 C   0  0  0  0  0  0  0  0  0  0  0  0
  1  2  1  0
  2  3  2  0
  3  4  1  0
  4  5  2  0
  5  6  1  0
  6  7  2  0
  7  8  1  0
  8  9  2  0
  9 10  1  0
 10 11  2  0
 10  5  1  0
 11  2  1  0
M  END
>  <target>  (208) 
-2.16

$$$$

     RDKit          3D

  7  7  0  0  0  0  0  0  0  0999 V2000
    2.6427   -0.5423   -0.1202 F   0  0  0  0  0  0  0  0  0  0  0  0
    1.3317   -0.2733   -0.0606 C   0  0  0  0  0  0  0  0  0  0  0  0
    0.4187   -1.3217   -0.0251 C   0  0  0  0  0  0  0  0  0  0  0  0
   -0.9462   -1.0419    0.0369 C   0  0  0  0  0  0  0  0  0  0  0  0
   -1.3844    0.2841    0.0630 C   0  0  0  0  0  0  0  0  0  0  0  0
   -0.4598    1.3304    0.0270 C   0  0  0  0  0  0  0  0  0  0  0  0
    0.9049    1.0501   -0.0351 C   0  0  0  0  0  0  0  0  0  0  0  0
  1  2  1  0
  2  3  2  0
  3  4  1  0
  4  5  2  0
  5  6  1  0
  6  7  2  0
  7  2  1  0
M  END
>  <target>  (209) 
-1.8

$$$$

     RDKit          3D

  4  3  0  0  0  0  0  0  0  0999 V2000
    1.2088    0.4013   -0.2415 C   0  0  0  0  0  0  0  0  0  0  0  0
    0.0851   -0.1798    0.6048 C   0  0  0  0  0  0  0  0  0  0  0  0
   -1.2073   -0.4005   -0.1725 C   0  0  0  0  0  0  0  0  0  0  0  0
   -1.9377    1.1324   -0.7021 Cl  0  0  0  0  0  0  0  0  0  0  0  0
  1  2  1  0
  2  3  1  0
  3  4  1  0
M  END
>  <target>  (210) 
-1.47

$$$$

     RDKit          3D

  6  5  0  0  0  0  0  0  0  0999 V2000
    2.2478   -0.1282    0.5419 C   0  0  0  0  0  0  0  0  0  0  0  0
    1.0880    0.4975   -0.2080 C   0  0  0  0  0  0  0  0  0  0  0  0
   -0.1081   -0.2045    0.1510 O   0  0  0  0  0  0  0  0  0  0  0  0
   -1.2317    0.2627   -0.4587 C   0  0  0  0  0  0  0  0  0  0  0  0
   -1.2766    1.1938   -1.2499 O   0  0  0  0  0  0  0  0  0  0  0  0
   -2.4217   -0.5339   -0.0190 C   0  0  0  0  0  0  0  0  0  0  0  0
  1  2  1  0
  2  3  1  0
  3  4  1  0
  4  5  2  0
  4  6  1  0
M  END
>  <target>  (211) 
-0.04

$$$$

     RDKit          3D

  7  6  0  0  0  0  0  0  0  0999 V2000
    2.9583    0.3216    0.3987 C   0  0  0  0  0  0  0  0  0  0  0  0
    1.5043    0.7266    0.1993 C   0  0  0  0  0  0  0  0  0  0  0  0
    0.5976   -0.5037    0.0840 C   0  0  0  0  0  0  0  0  0  0  0  0
   -0.9127   -0.2115   -0.1223 C   0  0  0  0  0  0  0  0  0  0  0  0
   -1.6541   -1.5598   -0.2144 C   0  0  0  0  0  0  0  0  0  0  0  0
   -1.4924    0.5835    1.0593 C   0  0  0  0  0  0  0  0  0  0  0  0
   -1.1559    0.5681   -1.4251 C   0  0  0  0  0  0  0  0  0  0  0  0
  1  2  1  0
  2  3  1  0
  3  4  1  0
  4  5  1  0
  4  6  1  0
  4  7  1  0
M  END
>  <target>  (212) 
-4.36

$$$$

     RDKit          3D

 11 11  0  0  0  0  0  0  0  0999 V2000
    2.6790   -1.5693   -0.3391 C   0  0  0  0  0  0  0  0  0  0  0  0
    1.3310   -0.9134   -0.1969 C   0  0  0  0  0  0  0  0  0  0  0  0
    0.1864   -1.7028   -0.3681 C   0  0  0  0  0  0  0  0  0  0  0  0
   -1.1032   -1.1664   -0.2589 C   0  0  0  0  0  0  0  0  0  0  0  0
   -2.2787   -2.0846   -0.4654 C   0  0  0  0  0  0  0  0  0  0  0  0
   -1.2611    0.2066    0.0222 C   0  0  0  0  0  0  0  0  0  0  0  0
   -2.6441    0.8068    0.1256 C   0  0  0  0  0  0  0  0  0  0  0  0
   -0.1115    1.0107    0.2529 C   0  0  0  0  0  0  0  0  0  0  0  0
   -0.2726    2.4675    0.6304 C   0  0  0  0  0  0  0  0  0  0  0  0
    1.1889    0.4613    0.0846 C   0  0  0  0  0  0  0  0  0  0  0  0
    2.4120    1.3325    0.2543 C   0  0  0  0  0  0  0  0  0  0  0  0
  1  2  1  0
  2  3  2  0
  3  4  1  0
  4  5  1  0
  4  6  2  0
  6  7  1  0
  6  8  1  0
  8  9  1  0
  8 10  2  0
 10 11  1  0
 10  2  1  0
M  END
>  <target>  (213) 
-4.0

$$$$

     RDKit          3D

 11 12  0  0  0  0  0  0  0  0999 V2000
    2.2154    1.6960    0.0278 C   0  0  0  0  0  0  0  0  0  0  0  0
    1.1694    0.5862    0.0410 C   0  0  0  0  0  0  0  0  0  0  0  0
    1.3829   -0.3893   -1.1323 C   0  0  0  0  0  0  0  0  0  0  0  0
    0.3201   -1.4933   -1.0868 C   0  0  0  0  0  0  0  0  0  0  0  0
   -0.6750   -1.1855    0.0486 C   0  0  0  0  0  0  0  0  0  0  0  0
    0.1298   -1.2847    1.3587 C   0  0  0  0  0  0  0  0  0  0  0  0
    1.1873   -0.1750    1.3805 C   0  0  0  0  0  0  0  0  0  0  0  0
   -1.2178    0.2645   -0.1174 C   0  0  0  0  0  0  0  0  0  0  0  0
   -2.1645    0.6629    1.0250 C   0  0  0  0  0  0  0  0  0  0  0  0
   -1.9724    0.4525   -1.4422 C   0  0  0  0  0  0  0  0  0  0  0  0
   -0.1237    1.2062   -0.1125 O   0  0  0  0  0  0  0  0  0  0  0  0
  1  2  1  0
  2  3  1  0
  3  4  1  0
  4  5  1  0
  5  6  1  0
  6  7  1  0
  5  8  1  0
  8  9  1  0
  8 10  1  0
  8 11  1  0
  7  2  1  0
 11  2  1  0
M  END
>  <target>  (214) 
-1.64

$$$$

     RDKit          3D

 22 21  0  0  0  0  0  0  0  0999 V2000
    8.4756   -2.2856   -1.8794 C   0  0  0  0  0  0  0  0  0  0  0  0
    8.5520   -1.3079   -0.7171 C   0  0  0  0  0  0  0  0  0  0  0  0
    7.2090   -1.0776   -0.0259 C   0  0  0  0  0  0  0  0  0  0  0  0
    6.1724   -0.3994   -0.9177 C   0  0  0  0  0  0  0  0  0  0  0  0
    4.9615   -0.1768   -0.1764 O   0  0  0  0  0  0  0  0  0  0  0  0
    4.8994    0.9903    0.5216 C   0  0  0  0  0  0  0  0  0  0  0  0
    5.7768    1.8413    0.5666 O   0  0  0  0  0  0  0  0  0  0  0  0
    3.5748    1.1060    1.2295 C   0  0  0  0  0  0  0  0  0  0  0  0
    2.4962    1.6044    0.2752 C   0  0  0  0  0  0  0  0  0  0  0  0
    1.1522    1.7628    0.9881 C   0  0  0  0  0  0  0  0  0  0  0  0
    0.0699    2.2568    0.0258 C   0  0  0  0  0  0  0  0  0  0  0  0
   -1.2696    2.5438    0.7105 C   0  0  0  0  0  0  0  0  0  0  0  0
   -1.9395    1.2934    1.2853 C   0  0  0  0  0  0  0  0  0  0  0  0
   -3.3285    1.6180    1.8450 C   0  0  0  0  0  0  0  0  0  0  0  0
   -3.9991    0.4041    2.4816 C   0  0  0  0  0  0  0  0  0  0  0  0
   -4.3517   -0.6566    1.4697 C   0  0  0  0  0  0  0  0  0  0  0  0
   -3.7897   -1.7402    1.3876 O   0  0  0  0  0  0  0  0  0  0  0  0
   -5.3726   -0.2362    0.6739 O   0  0  0  0  0  0  0  0  0  0  0  0
   -5.7666   -1.1840   -0.3287 C   0  0  0  0  0  0  0  0  0  0  0  0
   -6.8895   -0.5579   -1.1496 C   0  0  0  0  0  0  0  0  0  0  0  0
   -7.3445   -1.4216   -2.3246 C   0  0  0  0  0  0  0  0  0  0  0  0
   -7.9868   -2.7328   -1.8991 C   0  0  0  0  0  0  0  0  0  0  0  0
  1  2  1  0
  2  3  1  0
  3  4  1  0
  4  5  1  0
  5  6  1  0
  6  7  2  0
  6  8  1  0
  8  9  1  0
  9 10  1  0
 10 11  1  0
 11 12  1  0
 12 13  1  0
 13 14  1  0
 14 15  1  0
 15 16  1  0
 16 17  2  0
 16 18  1  0
 18 19  1  0
 19 20  1  0
 20 21  1  0
 21 22  1  0
M  END
>  <target>  (215) 
-3.8960000000000004

$$$$

     RDKit          3D

 14 15  0  0  0  0  0  0  0  0999 V2000
   -5.2273    0.2718   -0.5720 Cl  0  0  0  0  0  0  0  0  0  0  0  0
   -3.5214    0.1831   -0.3710 C   0  0  0  0  0  0  0  0  0  0  0  0
   -2.6969    1.0779   -1.0468 C   0  0  0  0  0  0  0  0  0  0  0  0
   -1.3101    1.0047   -0.8818 C   0  0  0  0  0  0  0  0  0  0  0  0
   -0.7299    0.0380   -0.0422 C   0  0  0  0  0  0  0  0  0  0  0  0
   -1.5846   -0.8542    0.6284 C   0  0  0  0  0  0  0  0  0  0  0  0
   -2.9719   -0.7831    0.4666 C   0  0  0  0  0  0  0  0  0  0  0  0
    0.7299   -0.0380    0.1298 C   0  0  0  0  0  0  0  0  0  0  0  0
    1.4715    1.0896    0.5232 C   0  0  0  0  0  0  0  0  0  0  0  0
    2.8585    1.0191    0.6876 C   0  0  0  0  0  0  0  0  0  0  0  0
    3.5214   -0.1831    0.4587 C   0  0  0  0  0  0  0  0  0  0  0  0
    5.2273   -0.2718    0.6597 Cl  0  0  0  0  0  0  0  0  0  0  0  0
    2.8103   -1.3139    0.0679 C   0  0  0  0  0  0  0  0  0  0  0  0
    1.4232   -1.2401   -0.0945 C   0  0  0  0  0  0  0  0  0  0  0  0
  1  2  1  0
  2  3  2  0
  3  4  1  0
  4  5  2  0
  5  6  1  0
  6  7  2  0
  5  8  1  0
  8  9  2  0
  9 10  1  0
 10 11  2  0
 11 12  1  0
 11 13  1  0
 13 14  2  0
  7  2  1  0
 14  8  1  0
M  END
>  <target>  (216) 
-6.56

$$$$

     RDKit          3D

  8  8  0  0  0  0  0  0  0  0999 V2000
   -1.1288    1.6395    0.1101 C   0  0  0  0  0  0  0  0  0  0  0  0
   -0.0451    0.6053    0.0399 C   0  0  0  0  0  0  0  0  0  0  0  0
    1.2994    0.9935    0.0626 C   0  0  0  0  0  0  0  0  0  0  0  0
    2.3016    0.0328   -0.0025 C   0  0  0  0  0  0  0  0  0  0  0  0
    1.9263   -1.2940   -0.0890 C   0  0  0  0  0  0  0  0  0  0  0  0
    0.6428   -1.7098   -0.1137 N   0  0  0  0  0  0  0  0  0  0  0  0
   -0.3281   -0.7638   -0.0495 C   0  0  0  0  0  0  0  0  0  0  0  0
   -1.7400   -1.2740   -0.0802 C   0  0  0  0  0  0  0  0  0  0  0  0
  1  2  1  0
  2  3  2  0
  3  4  1  0
  4  5  2  0
  5  6  1  0
  6  7  2  0
  7  8  1  0
  7  2  1  0
M  END
>  <target>  (217) 
0.38

$$$$

     RDKit          3D

 11 11  0  0  0  0  0  0  0  0999 V2000
   -2.8276   -0.6915    1.3077 C   0  0  0  0  0  0  0  0  0  0  0  0
   -2.1242    0.2364    0.3474 C   0  0  0  0  0  0  0  0  0  0  0  0
   -2.8426    1.0870   -0.4064 C   0  0  0  0  0  0  0  0  0  0  0  0
   -0.5978    0.1457    0.3426 C   0  0  0  0  0  0  0  0  0  0  0  0
   -0.1221   -1.1606   -0.3220 C   0  0  0  0  0  0  0  0  0  0  0  0
    1.3729   -1.2416   -0.4419 C   0  0  0  0  0  0  0  0  0  0  0  0
    2.2047   -0.1910   -0.3511 C   0  0  0  0  0  0  0  0  0  0  0  0
    3.6949   -0.2938   -0.4258 C   0  0  0  0  0  0  0  0  0  0  0  0
    1.6274    1.1791   -0.1953 C   0  0  0  0  0  0  0  0  0  0  0  0
    2.3667    2.1521   -0.0579 O   0  0  0  0  0  0  0  0  0  0  0  0
    0.1258    1.3372   -0.2982 C   0  0  0  0  0  0  0  0  0  0  0  0
  1  2  1  0
  2  3  2  0
  2  4  1  0
  4  5  1  0
  5  6  1  0
  6  7  2  0
  7  8  1  0
  7  9  1  0
  9 10  2  0
  9 11  1  0
 11  4  1  0
M  END
>  <target>  (218) 
-2.06

$$$$

     RDKit          3D

 18 18  0  0  0  0  0  0  0  0999 V2000
   -4.0448   -0.4875   -2.1112 C   0  0  0  0  0  0  0  0  0  0  0  0
   -3.7613   -0.4064   -0.6254 C   0  0  0  0  0  0  0  0  0  0  0  0
   -2.4649    0.1432   -0.4456 O   0  0  0  0  0  0  0  0  0  0  0  0
   -1.6426   -0.2067    0.9156 P   0  0  0  0  0  0  0  0  0  0  0  0
   -2.5962    0.2961    2.5414 S   0  0  0  0  0  0  0  0  0  0  0  0
   -0.3204    0.7055    0.6511 O   0  0  0  0  0  0  0  0  0  0  0  0
   -0.4531    2.1171    0.5901 C   0  0  0  0  0  0  0  0  0  0  0  0
    0.7558    2.6889   -0.1216 C   0  0  0  0  0  0  0  0  0  0  0  0
   -0.9964   -2.1946    0.7056 S   0  0  0  0  0  0  0  0  0  0  0  0
   -0.1695   -2.1721   -0.8969 C   0  0  0  0  0  0  0  0  0  0  0  0
    1.4808   -2.9342   -0.8188 S   0  0  0  0  0  0  0  0  0  0  0  0
    2.3546   -1.6380    0.0376 C   0  0  0  0  0  0  0  0  0  0  0  0
    2.6853   -0.4488   -0.6195 C   0  0  0  0  0  0  0  0  0  0  0  0
    3.3136    0.5863    0.0769 C   0  0  0  0  0  0  0  0  0  0  0  0
    3.6272    0.4232    1.4247 C   0  0  0  0  0  0  0  0  0  0  0  0
    4.3817    1.7059    2.2855 Cl  0  0  0  0  0  0  0  0  0  0  0  0
    3.3277   -0.7691    2.0801 C   0  0  0  0  0  0  0  0  0  0  0  0
    2.6938   -1.8013    1.3845 C   0  0  0  0  0  0  0  0  0  0  0  0
  1  2  1  0
  2  3  1  0
  3  4  1  0
  4  5  2  0
  4  6  1  0
  6  7  1  0
  7  8  1  0
  4  9  1  0
  9 10  1  0
 10 11  1  0
 11 12  1  0
 12 13  2  0
 13 14  1  0
 14 15  2  0
 15 16  1  0
 15 17  1  0
 17 18  2  0
 18 12  1  0
M  END
>  <target>  (219) 
-5.736000000000001

$$$$

     RDKit          3D

 42 48  0  0  0  0  0  0  0  0999 V2000
   -3.7906    4.3251    0.0726 C   0  0  0  0  0  0  0  0  0  0  0  0
   -4.5068    3.4753   -0.8197 O   0  0  0  0  0  0  0  0  0  0  0  0
   -3.9691    2.2270   -1.0300 C   0  0  0  0  0  0  0  0  0  0  0  0
   -2.9745    1.6351   -0.2508 C   0  0  0  0  0  0  0  0  0  0  0  0
   -2.4733    0.3596   -0.5692 C   0  0  0  0  0  0  0  0  0  0  0  0
   -3.0193   -0.3082   -1.6787 C   0  0  0  0  0  0  0  0  0  0  0  0
   -4.0364    0.2581   -2.4617 C   0  0  0  0  0  0  0  0  0  0  0  0
   -4.4312   -0.5545   -3.4898 O   0  0  0  0  0  0  0  0  0  0  0  0
   -5.4767   -0.1004   -4.3362 C   0  0  0  0  0  0  0  0  0  0  0  0
   -4.5050    1.5286   -2.1257 C   0  0  0  0  0  0  0  0  0  0  0  0
   -5.4914    2.1560   -2.8455 O   0  0  0  0  0  0  0  0  0  0  0  0
   -1.3587   -0.2292    0.2991 C   0  0  0  0  0  0  0  0  0  0  0  0
    0.0301    0.3987    0.1044 C   0  0  0  0  0  0  0  0  0  0  0  0
    0.9803   -0.3448   -0.8072 C   0  0  0  0  0  0  0  0  0  0  0  0
    0.4802    0.0831   -2.1665 C   0  0  0  0  0  0  0  0  0  0  0  0
    0.2119    1.4851   -1.9649 O   0  0  0  0  0  0  0  0  0  0  0  0
    0.0997    1.7158   -0.6110 C   0  0  0  0  0  0  0  0  0  0  0  0
    0.0902    2.8122   -0.0758 O   0  0  0  0  0  0  0  0  0  0  0  0
    1.1490   -1.8325   -0.5080 C   0  0  0  0  0  0  0  0  0  0  0  0
    2.1255   -2.2032    0.5083 O   0  0  0  0  0  0  0  0  0  0  0  0
    3.0244   -1.1783    0.9220 C   0  0  0  0  0  0  0  0  0  0  0  0
    2.3341   -0.3426    1.8472 O   0  0  0  0  0  0  0  0  0  0  0  0
    3.1091    0.6793    2.4969 C   0  0  0  0  0  0  0  0  0  0  0  0
    2.3249    1.9892    2.3959 C   0  0  0  0  0  0  0  0  0  0  0  0
    2.2173    2.4005    1.0288 O   0  0  0  0  0  0  0  0  0  0  0  0
    3.4889    2.5370    0.3994 C   0  0  0  0  0  0  0  0  0  0  0  0
    4.2365    3.7897    0.8441 C   0  0  0  0  0  0  0  0  0  0  0  0
    4.2980    1.3594    0.4982 O   0  0  0  0  0  0  0  0  0  0  0  0
    4.4733    0.8747    1.8516 C   0  0  0  0  0  0  0  0  0  0  0  0
    5.2341   -0.4812    1.8237 C   0  0  0  0  0  0  0  0  0  0  0  0
    6.2523   -0.4180    0.8120 O   0  0  0  0  0  0  0  0  0  0  0  0
    4.3078   -1.7007    1.5774 C   0  0  0  0  0  0  0  0  0  0  0  0
    4.0003   -2.3382    2.8298 O   0  0  0  0  0  0  0  0  0  0  0  0
   -0.1513   -2.4956   -0.0885 C   0  0  0  0  0  0  0  0  0  0  0  0
   -0.1816   -3.9072   -0.0604 C   0  0  0  0  0  0  0  0  0  0  0  0
   -1.3213   -4.5404    0.3820 C   0  0  0  0  0  0  0  0  0  0  0  0
   -1.5016   -5.8848    0.4713 O   0  0  0  0  0  0  0  0  0  0  0  0
   -2.8454   -5.9421    0.9937 C   0  0  0  0  0  0  0  0  0  0  0  0
   -3.4320   -4.6421    1.2101 O   0  0  0  0  0  0  0  0  0  0  0  0
   -2.4175   -3.8346    0.8021 C   0  0  0  0  0  0  0  0  0  0  0  0
   -2.4366   -2.4577    0.7925 C   0  0  0  0  0  0  0  0  0  0  0  0
   -1.2987   -1.7605    0.3260 C   0  0  0  0  0  0  0  0  0  0  0  0
  1  2  1  0
  2  3  1  0
  3  4  2  0
  4  5  1  0
  5  6  2  0
  6  7  1  0
  7  8  1  0
  8  9  1  0
  7 10  2  0
 10 11  1  0
  5 12  1  0
 12 13  1  0
 13 14  1  0
 14 15  1  0
 15 16  1  0
 16 17  1  0
 17 18  2  0
 14 19  1  0
 19 20  1  0
 20 21  1  0
 21 22  1  0
 22 23  1  0
 23 24  1  0
 24 25  1  0
 25 26  1  0
 26 27  1  0
 26 28  1  0
 28 29  1  0
 29 30  1  0
 30 31  1  0
 30 32  1  0
 32 33  1  0
 19 34  1  0
 34 35  2  0
 35 36  1  0
 36 37  1  0
 37 38  1  0
 38 39  1  0
 39 40  1  0
 40 41  1  0
 41 42  2  0
 10  3  1  0
 17 13  1  0
 29 23  1  0
 32 21  1  0
 40 36  2  0
 42 12  1  0
 42 34  1  0
M  END
>  <target>  (220) 
-3.571

$$$$

     RDKit          3D

 20 24  0  0  0  0  0  0  0  0999 V2000
    2.2485   -2.9904   -0.3782 C   0  0  0  0  0  0  0  0  0  0  0  0
    3.1548   -2.0410    0.0595 C   0  0  0  0  0  0  0  0  0  0  0  0
    2.7315   -0.7389    0.3331 C   0  0  0  0  0  0  0  0  0  0  0  0
    3.6724    0.1941    0.7731 C   0  0  0  0  0  0  0  0  0  0  0  0
    3.2867    1.4930    1.0532 C   0  0  0  0  0  0  0  0  0  0  0  0
    1.9536    1.8655    0.8939 C   0  0  0  0  0  0  0  0  0  0  0  0
    0.9528    0.9622    0.4503 C   0  0  0  0  0  0  0  0  0  0  0  0
   -0.4211    1.3339    0.2828 C   0  0  0  0  0  0  0  0  0  0  0  0
   -0.9102    2.6402    0.5446 C   0  0  0  0  0  0  0  0  0  0  0  0
   -2.2485    2.9904    0.3782 C   0  0  0  0  0  0  0  0  0  0  0  0
   -3.1548    2.0410   -0.0595 C   0  0  0  0  0  0  0  0  0  0  0  0
   -2.7315    0.7389   -0.3331 C   0  0  0  0  0  0  0  0  0  0  0  0
   -3.6724   -0.1941   -0.7731 C   0  0  0  0  0  0  0  0  0  0  0  0
   -3.2867   -1.4930   -1.0532 C   0  0  0  0  0  0  0  0  0  0  0  0
   -1.9536   -1.8655   -0.8939 C   0  0  0  0  0  0  0  0  0  0  0  0
   -0.9528   -0.9622   -0.4503 C   0  0  0  0  0  0  0  0  0  0  0  0
    0.4211   -1.3339   -0.2828 C   0  0  0  0  0  0  0  0  0  0  0  0
    0.9102   -2.6402   -0.5446 C   0  0  0  0  0  0  0  0  0  0  0  0
    1.3606   -0.3681    0.1659 C   0  0  0  0  0  0  0  0  0  0  0  0
   -1.3606    0.3681   -0.1659 C   0  0  0  0  0  0  0  0  0  0  0  0
  1  2  2  0
  2  3  1  0
  3  4  2  0
  4  5  1  0
  5  6  2  0
  6  7  1  0
  7  8  1  0
  8  9  1  0
  9 10  2  0
 10 11  1  0
 11 12  2  0
 12 13  1  0
 13 14  2  0
 14 15  1  0
 15 16  2  0
 16 17  1  0
 17 18  2  0
 17 19  1  0
 16 20  1  0
 18  1  1  0
 19  3  1  0
 19  7  2  0
 20  8  2  0
 20 12  1  0
M  END
>  <target>  (221) 
-8.804

$$$$

     RDKit          3D

 13 13  0  0  0  0  0  0  0  0999 V2000
   -2.3789   -1.0149   -0.3421 C   0  0  0  0  0  0  0  0  0  0  0  0
   -0.9485   -0.5657   -0.2162 C   0  0  0  0  0  0  0  0  0  0  0  0
    0.0690   -1.3828   -0.7360 C   0  0  0  0  0  0  0  0  0  0  0  0
    1.4134   -1.0072   -0.6390 C   0  0  0  0  0  0  0  0  0  0  0  0
    1.7572    0.2024   -0.0206 C   0  0  0  0  0  0  0  0  0  0  0  0
    0.7679    1.0444    0.4965 C   0  0  0  0  0  0  0  0  0  0  0  0
   -0.5745    0.6537    0.3838 C   0  0  0  0  0  0  0  0  0  0  0  0
   -1.5803    1.5641    0.9211 N   0  0  0  0  0  0  0  0  0  0  0  0
   -1.4097    1.9654    2.0795 O   0  0  0  0  0  0  0  0  0  0  0  0
   -2.5162    1.8843    0.1777 O   0  0  0  0  0  0  0  0  0  0  0  0
    3.1698    0.5916    0.0789 N   0  0  0  0  0  0  0  0  0  0  0  0
    3.4249    1.7030    0.5620 O   0  0  0  0  0  0  0  0  0  0  0  0
    4.0187   -0.2132   -0.3280 O   0  0  0  0  0  0  0  0  0  0  0  0
  1  2  1  0
  2  3  2  0
  3  4  1  0
  4  5  2  0
  5  6  1  0
  6  7  2  0
  7  8  1  0
  8  9  1  0
  8 10  2  0
  5 11  1  0
 11 12  1  0
 11 13  2  0
  7  2  1  0
M  CHG  4   8   1   9  -1  11   1  12  -1
M  END
>  <target>  (222) 
-2.82

$$$$

     RDKit          3D

 11 12  0  0  0  0  0  0  0  0999 V2000
    1.3916   -1.1503    0.2019 C   0  0  0  0  0  0  0  0  0  0  0  0
    2.4661   -0.2661    0.1092 C   0  0  0  0  0  0  0  0  0  0  0  0
    4.2341   -0.9215    0.2527 Br  0  0  0  0  0  0  0  0  0  0  0  0
    2.2496    1.0942   -0.0880 C   0  0  0  0  0  0  0  0  0  0  0  0
    0.9440    1.5776   -0.1938 C   0  0  0  0  0  0  0  0  0  0  0  0
   -0.1532    0.7056   -0.1035 C   0  0  0  0  0  0  0  0  0  0  0  0
   -1.4717    1.1766   -0.2080 C   0  0  0  0  0  0  0  0  0  0  0  0
   -2.5524    0.2980   -0.1162 C   0  0  0  0  0  0  0  0  0  0  0  0
   -2.3294   -1.0616    0.0811 C   0  0  0  0  0  0  0  0  0  0  0  0
   -1.0249   -1.5467    0.1871 C   0  0  0  0  0  0  0  0  0  0  0  0
    0.0738   -0.6768    0.0971 C   0  0  0  0  0  0  0  0  0  0  0  0
  1  2  2  0
  2  3  1  0
  2  4  1  0
  4  5  2  0
  5  6  1  0
  6  7  2  0
  7  8  1  0
  8  9  2  0
  9 10  1  0
 10 11  2  0
 11  1  1  0
 11  6  1  0
M  END
>  <target>  (223) 
-4.4

$$$$

     RDKit          3D

 16 16  0  0  0  0  0  0  0  0999 V2000
   -4.6090    2.1446   -0.7416 C   0  0  0  0  0  0  0  0  0  0  0  0
   -3.8622    1.0740   -1.3413 N   0  0  0  0  0  0  0  0  0  0  0  0
   -2.9288    0.3581   -0.6462 C   0  0  0  0  0  0  0  0  0  0  0  0
   -2.5851    0.6014    0.5027 O   0  0  0  0  0  0  0  0  0  0  0  0
   -2.4543   -0.6680   -1.4496 O   0  0  0  0  0  0  0  0  0  0  0  0
   -1.3855   -1.3833   -0.9004 C   0  0  0  0  0  0  0  0  0  0  0  0
   -1.5585   -2.7407   -0.6430 C   0  0  0  0  0  0  0  0  0  0  0  0
   -0.4918   -3.4747   -0.1253 C   0  0  0  0  0  0  0  0  0  0  0  0
    0.7314   -2.8454    0.1292 C   0  0  0  0  0  0  0  0  0  0  0  0
    0.8996   -1.4833   -0.1349 C   0  0  0  0  0  0  0  0  0  0  0  0
    2.1275   -0.8619    0.1344 N   0  0  0  0  0  0  0  0  0  0  0  0
    2.1129   -0.0034    1.1017 C   0  0  0  0  0  0  0  0  0  0  0  0
    3.1708    0.7707    1.5241 N   0  0  0  0  0  0  0  0  0  0  0  0
    4.3747    0.8214    0.7067 C   0  0  0  0  0  0  0  0  0  0  0  0
    2.9105    1.9395    2.3498 C   0  0  0  0  0  0  0  0  0  0  0  0
   -0.1583   -0.7587   -0.6863 C   0  0  0  0  0  0  0  0  0  0  0  0
  1  2  1  0
  2  3  1  0
  3  4  2  0
  3  5  1  0
  5  6  1  0
  6  7  2  0
  7  8  1  0
  8  9  2  0
  9 10  1  0
 10 11  1  0
 11 12  2  3
 12 13  1  0
 13 14  1  0
 13 15  1  0
 10 16  2  0
 16  6  1  0
M  END
>  <target>  (224) 
-2.34

$$$$

     RDKit          3D

 12 13  0  0  0  0  0  0  0  0999 V2000
   -3.0979   -0.4770   -0.9046 C   0  0  0  0  0  0  0  0  0  0  0  0
   -2.6582    0.5816   -0.0593 O   0  0  0  0  0  0  0  0  0  0  0  0
   -1.3019    0.5633    0.1725 C   0  0  0  0  0  0  0  0  0  0  0  0
   -0.7716    1.5493    0.9816 C   0  0  0  0  0  0  0  0  0  0  0  0
    0.5505    1.6244    1.2747 N   0  0  0  0  0  0  0  0  0  0  0  0
    1.3540    0.6947    0.7472 C   0  0  0  0  0  0  0  0  0  0  0  0
    2.6543    0.7611    1.0301 N   0  0  0  0  0  0  0  0  0  0  0  0
    3.4447   -0.1747    0.4958 C   0  0  0  0  0  0  0  0  0  0  0  0
    3.0472   -1.1727   -0.2982 N   0  0  0  0  0  0  0  0  0  0  0  0
    1.7230   -1.2025   -0.5589 C   0  0  0  0  0  0  0  0  0  0  0  0
    0.7996   -0.3040   -0.0755 C   0  0  0  0  0  0  0  0  0  0  0  0
   -0.5243   -0.3886   -0.3758 N   0  0  0  0  0  0  0  0  0  0  0  0
  1  2  1  0
  2  3  1  0
  3  4  2  0
  4  5  1  0
  5  6  2  0
  6  7  1  0
  7  8  2  0
  8  9  1  0
  9 10  2  0
 10 11  1  0
 11 12  2  0
 11  6  1  0
 12  3  1  0
M  END
>  <target>  (225) 
-1.139

$$$$

     RDKit          3D

 20 23  0  0  0  0  0  0  0  0999 V2000
   -3.9209    1.3675    0.1620 C   0  0  0  0  0  0  0  0  0  0  0  0
   -2.9138    0.2813    0.4352 C   0  0  0  0  0  0  0  0  0  0  0  0
   -3.3475   -0.8664    1.1020 C   0  0  0  0  0  0  0  0  0  0  0  0
   -2.4356   -1.8668    1.3485 C   0  0  0  0  0  0  0  0  0  0  0  0
   -1.1465   -1.8020    0.9724 N   0  0  0  0  0  0  0  0  0  0  0  0
   -0.6891   -0.6902    0.3253 C   0  0  0  0  0  0  0  0  0  0  0  0
    0.6598   -0.7109   -0.1344 N   0  0  0  0  0  0  0  0  0  0  0  0
    1.2944   -2.0612   -0.1606 C   0  0  0  0  0  0  0  0  0  0  0  0
    0.8757   -3.1019   -1.1708 C   0  0  0  0  0  0  0  0  0  0  0  0
    2.2269   -2.4653   -1.2771 C   0  0  0  0  0  0  0  0  0  0  0  0
    1.5530    0.3619    0.1222 C   0  0  0  0  0  0  0  0  0  0  0  0
    2.7648    0.0597    0.6845 N   0  0  0  0  0  0  0  0  0  0  0  0
    3.6572    1.0435    0.9224 C   0  0  0  0  0  0  0  0  0  0  0  0
    3.4272    2.3641    0.6149 C   0  0  0  0  0  0  0  0  0  0  0  0
    2.2113    2.6790    0.0266 C   0  0  0  0  0  0  0  0  0  0  0  0
    1.2558    1.6744   -0.2221 C   0  0  0  0  0  0  0  0  0  0  0  0
    0.0316    2.0972   -0.9152 C   0  0  0  0  0  0  0  0  0  0  0  0
    0.0725    3.0873   -1.6493 O   0  0  0  0  0  0  0  0  0  0  0  0
   -1.1851    1.5256   -0.6838 N   0  0  0  0  0  0  0  0  0  0  0  0
   -1.5556    0.3833    0.0451 C   0  0  0  0  0  0  0  0  0  0  0  0
  1  2  1  0
  2  3  2  0
  3  4  1  0
  4  5  2  0
  5  6  1  0
  6  7  1  0
  7  8  1  0
  8  9  1  0
  9 10  1  0
  7 11  1  0
 11 12  2  0
 12 13  1  0
 13 14  2  0
 14 15  1  0
 15 16  2  0
 16 17  1  0
 17 18  2  0
 17 19  1  0
 19 20  1  0
 10  8  1  0
 16 11  1  0
 20  2  1  0
 20  6  2  0
M  END
>  <target>  (226) 
-3.19

$$$$

     RDKit          3D

 18 18  0  0  0  0  0  0  0  0999 V2000
   -3.6100    2.8056    1.3724 C   0  0  0  0  0  0  0  0  0  0  0  0
   -2.4157    1.9363    1.0368 C   0  0  0  0  0  0  0  0  0  0  0  0
   -2.4360    0.7974    1.8811 O   0  0  0  0  0  0  0  0  0  0  0  0
   -1.5166   -0.4865    1.4963 P   0  0  0  0  0  0  0  0  0  0  0  0
   -1.4772   -1.8383    2.8891 S   0  0  0  0  0  0  0  0  0  0  0  0
   -2.1511   -0.8990    0.0628 O   0  0  0  0  0  0  0  0  0  0  0  0
   -3.4436   -1.4809    0.0401 C   0  0  0  0  0  0  0  0  0  0  0  0
   -3.9890   -1.3846   -1.3698 C   0  0  0  0  0  0  0  0  0  0  0  0
   -0.1263    0.2187    1.0970 O   0  0  0  0  0  0  0  0  0  0  0  0
    0.8567   -0.4440    0.4931 C   0  0  0  0  0  0  0  0  0  0  0  0
    0.8502   -1.7362    0.0737 N   0  0  0  0  0  0  0  0  0  0  0  0
    2.0475   -1.8630   -0.4389 C   0  0  0  0  0  0  0  0  0  0  0  0
    2.6857   -3.2632   -1.1535 Cl  0  0  0  0  0  0  0  0  0  0  0  0
    2.7448   -0.6965   -0.3386 N   0  0  0  0  0  0  0  0  0  0  0  0
    1.9739    0.2468    0.2538 N   0  0  0  0  0  0  0  0  0  0  0  0
    4.0983   -0.3757   -0.7669 C   0  0  0  0  0  0  0  0  0  0  0  0
    4.9653    0.0771    0.4084 C   0  0  0  0  0  0  0  0  0  0  0  0
    4.0926    0.6669   -1.8848 C   0  0  0  0  0  0  0  0  0  0  0  0
  1  2  1  0
  2  3  1  0
  3  4  1  0
  4  5  2  0
  4  6  1  0
  6  7  1  0
  7  8  1  0
  4  9  1  0
  9 10  1  0
 10 11  1  0
 11 12  2  0
 12 13  1  0
 12 14  1  0
 14 15  1  0
 14 16  1  0
 16 17  1  0
 16 18  1  0
 15 10  2  0
M  END
>  <target>  (227) 
-3.658

$$$$

     RDKit          3D

  5  4  0  0  0  0  0  0  0  0999 V2000
   -0.9271   -1.0957    0.1366 C   0  0  0  0  0  0  0  0  0  0  0  0
   -0.4190    0.3149    0.0039 C   0  0  0  0  0  0  0  0  0  0  0  0
   -1.2736    1.3513   -0.0164 C   0  0  0  0  0  0  0  0  0  0  0  0
    1.0115    0.5547   -0.1032 C   0  0  0  0  0  0  0  0  0  0  0  0
    1.9725   -0.3779   -0.0970 C   0  0  0  0  0  0  0  0  0  0  0  0
  1  2  1  0
  2  3  2  0
  2  4  1  0
  4  5  2  0
M  END
>  <target>  (228) 
-2.03

$$$$

     RDKit          3D

 11 10  0  0  0  0  0  0  0  0999 V2000
   -4.0950    0.3728   -0.8245 C   0  0  0  0  0  0  0  0  0  0  0  0
   -2.8167    0.1404   -0.0619 C   0  0  0  0  0  0  0  0  0  0  0  0
   -2.8677   -1.0212    0.8919 C   0  0  0  0  0  0  0  0  0  0  0  0
   -1.7435    0.9298   -0.2632 C   0  0  0  0  0  0  0  0  0  0  0  0
   -0.4100    0.8608    0.4333 C   0  0  0  0  0  0  0  0  0  0  0  0
    0.6353    0.1693   -0.4500 C   0  0  0  0  0  0  0  0  0  0  0  0
    2.0535    0.1298    0.1597 C   0  0  0  0  0  0  0  0  0  0  0  0
    2.4758    1.4657    0.4315 O   0  0  0  0  0  0  0  0  0  0  0  0
    2.0984   -0.6425    1.4803 C   0  0  0  0  0  0  0  0  0  0  0  0
    3.0086   -0.5180   -0.8255 C   0  0  0  0  0  0  0  0  0  0  0  0
    4.1700   -0.0188   -1.2741 C   0  0  0  0  0  0  0  0  0  0  0  0
  1  2  1  0
  2  3  1  0
  2  4  2  3
  4  5  1  0
  5  6  1  0
  6  7  1  0
  7  8  1  0
  7  9  1  0
  7 10  1  0
 10 11  2  0
M  END
>  <target>  (229) 
-1.99

$$$$

     RDKit          3D

 16 16  0  0  0  0  0  0  0  0999 V2000
   -4.0985   -1.9061    0.4526 C   0  0  0  0  0  0  0  0  0  0  0  0
   -3.9335   -0.6002   -0.0641 O   0  0  0  0  0  0  0  0  0  0  0  0
   -2.6515    0.2642    0.4270 P   0  0  0  0  0  0  0  0  0  0  0  0
   -2.5876    0.6635    2.3265 S   0  0  0  0  0  0  0  0  0  0  0  0
   -2.7393    1.5288   -0.5824 O   0  0  0  0  0  0  0  0  0  0  0  0
   -3.8506    2.3960   -0.4779 C   0  0  0  0  0  0  0  0  0  0  0  0
   -1.4363   -0.5951   -0.2007 O   0  0  0  0  0  0  0  0  0  0  0  0
   -0.1250   -0.2184   -0.2597 C   0  0  0  0  0  0  0  0  0  0  0  0
    0.3447    1.0564    0.0283 C   0  0  0  0  0  0  0  0  0  0  0  0
    1.7123    1.3289   -0.0661 C   0  0  0  0  0  0  0  0  0  0  0  0
    2.6226    0.3331   -0.4471 C   0  0  0  0  0  0  0  0  0  0  0  0
    4.3566    0.7656   -0.5457 S   0  0  0  0  0  0  0  0  0  0  0  0
    4.7400    0.7796    1.2250 C   0  0  0  0  0  0  0  0  0  0  0  0
    2.1503   -0.9542   -0.7579 C   0  0  0  0  0  0  0  0  0  0  0  0
    3.0696   -2.0627   -1.1931 C   0  0  0  0  0  0  0  0  0  0  0  0
    0.7719   -1.2128   -0.6574 C   0  0  0  0  0  0  0  0  0  0  0  0
  1  2  1  0
  2  3  1  0
  3  4  2  0
  3  5  1  0
  5  6  1  0
  3  7  1  0
  7  8  1  0
  8  9  2  0
  9 10  1  0
 10 11  2  0
 11 12  1  0
 12 13  1  0
 11 14  1  0
 14 15  1  0
 14 16  2  0
 16  8  1  0
M  END
>  <target>  (230) 
-4.57

$$$$

     RDKit          3D

  7  7  0  0  0  0  0  0  0  0999 V2000
    2.4364    0.9047   -0.1839 O   0  0  0  0  0  0  0  0  0  0  0  0
    1.1802    0.4402    0.2979 C   0  0  0  0  0  0  0  0  0  0  0  0
    0.0944    1.4159   -0.1509 C   0  0  0  0  0  0  0  0  0  0  0  0
   -1.2976    0.9252    0.2331 C   0  0  0  0  0  0  0  0  0  0  0  0
   -1.5598   -0.4848   -0.2902 C   0  0  0  0  0  0  0  0  0  0  0  0
   -0.4747   -1.4628    0.1533 C   0  0  0  0  0  0  0  0  0  0  0  0
    0.9165   -0.9694   -0.2300 C   0  0  0  0  0  0  0  0  0  0  0  0
  1  2  1  0
  2  3  1  0
  3  4  1  0
  4  5  1  0
  5  6  1  0
  6  7  1  0
  7  2  1  0
M  END
>  <target>  (231) 
-0.44

$$$$

     RDKit          3D

 13 13  0  0  0  0  0  0  0  0999 V2000
   -1.6111    2.4187    0.3087 O   0  0  0  0  0  0  0  0  0  0  0  0
   -1.2209    1.2811    0.5561 C   0  0  0  0  0  0  0  0  0  0  0  0
   -1.5002    0.6992    1.7646 N   0  0  0  0  0  0  0  0  0  0  0  0
   -1.6153   -0.6464    1.9408 C   0  0  0  0  0  0  0  0  0  0  0  0
   -2.2973   -1.1158    2.8456 O   0  0  0  0  0  0  0  0  0  0  0  0
   -1.0238   -1.4436    1.0105 N   0  0  0  0  0  0  0  0  0  0  0  0
   -0.7983   -1.0109   -0.2683 C   0  0  0  0  0  0  0  0  0  0  0  0
   -0.9420   -1.7747   -1.2185 O   0  0  0  0  0  0  0  0  0  0  0  0
   -0.3725    0.4446   -0.3898 C   0  0  0  0  0  0  0  0  0  0  0  0
   -0.5636    0.9416   -1.8296 C   0  0  0  0  0  0  0  0  0  0  0  0
    1.0981    0.6007    0.0772 C   0  0  0  0  0  0  0  0  0  0  0  0
    2.1111   -0.1694   -0.7276 C   0  0  0  0  0  0  0  0  0  0  0  0
    2.8427   -1.1795   -0.2403 C   0  0  0  0  0  0  0  0  0  0  0  0
  1  2  2  0
  2  3  1  0
  3  4  1  0
  4  5  2  0
  4  6  1  0
  6  7  1  0
  7  8  2  0
  7  9  1  0
  9 10  1  0
  9 11  1  0
 11 12  1  0
 12 13  2  0
  9  2  1  0
M  END
>  <target>  (232) 
-1.16

$$$$

     RDKit          3D

 21 24  0  0  0  0  0  0  0  0999 V2000
   -3.1169   -0.2635    1.9608 C   0  0  0  0  0  0  0  0  0  0  0  0
   -2.8392    0.5102    0.6703 C   0  0  0  0  0  0  0  0  0  0  0  0
   -1.8609    1.6671    0.8998 C   0  0  0  0  0  0  0  0  0  0  0  0
   -0.3973    1.2330    0.9046 C   0  0  0  0  0  0  0  0  0  0  0  0
   -0.0037    0.5298   -0.4110 C   0  0  0  0  0  0  0  0  0  0  0  0
   -0.9157   -0.7091   -0.6501 C   0  0  0  0  0  0  0  0  0  0  0  0
   -0.5089   -1.9027    0.2349 C   0  0  0  0  0  0  0  0  0  0  0  0
    0.9692   -2.2595    0.1081 C   0  0  0  0  0  0  0  0  0  0  0  0
    1.8587   -1.0456    0.3980 C   0  0  0  0  0  0  0  0  0  0  0  0
    3.3484   -1.4345    0.3571 C   0  0  0  0  0  0  0  0  0  0  0  0
    4.2732   -0.2554    0.6693 C   0  0  0  0  0  0  0  0  0  0  0  0
    4.2206    0.0395    2.0650 O   0  0  0  0  0  0  0  0  0  0  0  0
    3.9441    1.0007   -0.1381 C   0  0  0  0  0  0  0  0  0  0  0  0
    2.4488    1.3452   -0.1187 C   0  0  0  0  0  0  0  0  0  0  0  0
    1.5289    0.1599   -0.5290 C   0  0  0  0  0  0  0  0  0  0  0  0
    1.8208   -0.1641   -2.0243 C   0  0  0  0  0  0  0  0  0  0  0  0
   -2.4255   -0.4054   -0.5070 C   0  0  0  0  0  0  0  0  0  0  0  0
   -2.9820    0.3187   -1.7460 C   0  0  0  0  0  0  0  0  0  0  0  0
   -4.3608    0.7979   -1.3202 C   0  0  0  0  0  0  0  0  0  0  0  0
   -4.1486    1.0922    0.1406 C   0  0  0  0  0  0  0  0  0  0  0  0
   -4.9472    1.7278    0.8188 O   0  0  0  0  0  0  0  0  0  0  0  0
  1  2  1  0
  2  3  1  0
  3  4  1  0
  4  5  1  0
  5  6  1  0
  6  7  1  0
  7  8  1  0
  8  9  1  0
  9 10  1  0
 10 11  1  0
 11 12  1  0
 11 13  1  0
 13 14  1  0
 14 15  1  0
 15 16  1  0
  6 17  1  0
 17 18  1  0
 18 19  1  0
 19 20  1  0
 20 21  2  0
 15  5  1  0
 15  9  1  0
 17  2  1  0
 20  2  1  0
M  END
>  <target>  (233) 
-4.16

$$$$

     RDKit          3D

 12 11  0  0  0  0  0  0  0  0999 V2000
   -3.6053    0.3026   -0.1680 O   0  0  0  0  0  0  0  0  0  0  0  0
   -2.9249    0.1779    1.0829 C   0  0  0  0  0  0  0  0  0  0  0  0
   -1.6658   -0.6871    0.9157 C   0  0  0  0  0  0  0  0  0  0  0  0
   -2.0320   -1.9025    0.2307 O   0  0  0  0  0  0  0  0  0  0  0  0
   -0.5905    0.0284    0.0707 C   0  0  0  0  0  0  0  0  0  0  0  0
   -1.0631    0.1318   -1.2815 O   0  0  0  0  0  0  0  0  0  0  0  0
    0.7587   -0.7104    0.1197 C   0  0  0  0  0  0  0  0  0  0  0  0
    1.3136   -0.5990    1.4406 O   0  0  0  0  0  0  0  0  0  0  0  0
    1.7935   -0.1962   -0.8959 C   0  0  0  0  0  0  0  0  0  0  0  0
    3.0259   -0.9124   -0.6599 O   0  0  0  0  0  0  0  0  0  0  0  0
    2.0981    1.3008   -0.7829 C   0  0  0  0  0  0  0  0  0  0  0  0
    3.1636    1.6059   -1.6911 O   0  0  0  0  0  0  0  0  0  0  0  0
  1  2  1  0
  2  3  1  0
  3  4  1  0
  3  5  1  0
  5  6  1  0
  5  7  1  0
  7  8  1  0
  7  9  1  0
  9 10  1  0
  9 11  1  0
 11 12  1  0
M  END
>  <target>  (234) 
0.06

$$$$

     RDKit          3D

 13 14  0  0  0  0  0  0  0  0999 V2000
   -4.3681    0.1409   -0.4878 C   0  0  0  0  0  0  0  0  0  0  0  0
   -2.8820    0.0880   -0.2940 C   0  0  0  0  0  0  0  0  0  0  0  0
   -2.1608    1.2523   -0.0139 C   0  0  0  0  0  0  0  0  0  0  0  0
   -0.7706    1.2072    0.1349 C   0  0  0  0  0  0  0  0  0  0  0  0
   -0.0650    0.0014   -0.0013 C   0  0  0  0  0  0  0  0  0  0  0  0
   -0.7985   -1.1583   -0.2967 C   0  0  0  0  0  0  0  0  0  0  0  0
   -2.1886   -1.1161   -0.4473 C   0  0  0  0  0  0  0  0  0  0  0  0
    1.3981   -0.0449    0.1561 C   0  0  0  0  0  0  0  0  0  0  0  0
    2.2342    0.8031   -0.5894 C   0  0  0  0  0  0  0  0  0  0  0  0
    3.6232    0.7592   -0.4409 C   0  0  0  0  0  0  0  0  0  0  0  0
    4.2003   -0.1341    0.4580 C   0  0  0  0  0  0  0  0  0  0  0  0
    3.3902   -0.9833    1.2074 C   0  0  0  0  0  0  0  0  0  0  0  0
    2.0014   -0.9387    1.0567 C   0  0  0  0  0  0  0  0  0  0  0  0
  1  2  1  0
  2  3  2  0
  3  4  1  0
  4  5  2  0
  5  6  1  0
  6  7  2  0
  5  8  1  0
  8  9  2  0
  9 10  1  0
 10 11  2  0
 11 12  1  0
 12 13  2  0
  7  2  1  0
 13  8  1  0
M  END
>  <target>  (235) 
-4.62

$$$$

     RDKit          3D

 14 14  0  0  0  0  0  0  0  0999 V2000
   -5.0372    0.6404    0.7059 C   0  0  0  0  0  0  0  0  0  0  0  0
   -3.9003   -0.1623    0.0931 C   0  0  0  0  0  0  0  0  0  0  0  0
   -2.6558    0.5690    0.2512 N   0  0  0  0  0  0  0  0  0  0  0  0
   -1.5219   -0.0876   -0.2108 C   0  0  0  0  0  0  0  0  0  0  0  0
   -1.5943   -0.8959   -1.2516 N   0  0  0  0  0  0  0  0  0  0  0  0
   -0.4305   -1.4308   -1.5823 C   0  0  0  0  0  0  0  0  0  0  0  0
   -0.4482   -2.4862   -2.9274 Cl  0  0  0  0  0  0  0  0  0  0  0  0
    0.7450   -1.2529   -1.0026 N   0  0  0  0  0  0  0  0  0  0  0  0
    0.7017   -0.4329    0.0303 C   0  0  0  0  0  0  0  0  0  0  0  0
    1.8481   -0.1536    0.7548 N   0  0  0  0  0  0  0  0  0  0  0  0
    3.1253   -0.1873    0.0538 C   0  0  0  0  0  0  0  0  0  0  0  0
    3.2856    1.0408   -0.8421 C   0  0  0  0  0  0  0  0  0  0  0  0
    4.2395   -0.2219    1.1006 C   0  0  0  0  0  0  0  0  0  0  0  0
   -0.4030    0.1685    0.4581 N   0  0  0  0  0  0  0  0  0  0  0  0
  1  2  1  0
  2  3  1  0
  3  4  1  0
  4  5  2  0
  5  6  1  0
  6  7  1  0
  6  8  2  0
  8  9  1  0
  9 10  1  0
 10 11  1  0
 11 12  1  0
 11 13  1  0
  9 14  2  0
 14  4  1  0
M  END
>  <target>  (236) 
-3.85

$$$$

     RDKit          3D

 10 10  0  0  0  0  0  0  0  0999 V2000
    2.6869    0.7446    0.0333 N   0  0  0  0  0  0  0  0  0  0  0  0
    2.4614   -0.5819    0.0896 C   0  0  0  0  0  0  0  0  0  0  0  0
    3.7450   -1.6379    0.1503 S   0  0  0  0  0  0  0  0  0  0  0  0
    1.1899   -1.0434    0.1440 N   0  0  0  0  0  0  0  0  0  0  0  0
   -0.0467   -0.4221   -0.1243 C   0  0  0  0  0  0  0  0  0  0  0  0
   -1.2010   -1.1000    0.2888 C   0  0  0  0  0  0  0  0  0  0  0  0
   -2.4687   -0.5607    0.0553 C   0  0  0  0  0  0  0  0  0  0  0  0
   -2.5955    0.6551   -0.6103 C   0  0  0  0  0  0  0  0  0  0  0  0
   -1.4558    1.3232   -1.0510 C   0  0  0  0  0  0  0  0  0  0  0  0
   -0.1869    0.7837   -0.8148 C   0  0  0  0  0  0  0  0  0  0  0  0
  1  2  1  0
  2  3  2  0
  2  4  1  0
  4  5  1  0
  5  6  2  0
  6  7  1  0
  7  8  2  0
  8  9  1  0
  9 10  2  0
 10  5  1  0
M  END
>  <target>  (237) 
-1.77

$$$$

     RDKit          3D

  8  7  0  0  0  0  0  0  0  0999 V2000
   -3.5686    0.7825    0.1273 C   0  0  0  0  0  0  0  0  0  0  0  0
   -2.1719    0.7348    0.7250 C   0  0  0  0  0  0  0  0  0  0  0  0
   -1.2388   -0.1440   -0.1029 C   0  0  0  0  0  0  0  0  0  0  0  0
    0.1682   -0.2065    0.4713 C   0  0  0  0  0  0  0  0  0  0  0  0
    0.4802    0.3794    1.5066 O   0  0  0  0  0  0  0  0  0  0  0  0
    1.1530   -1.0715   -0.3026 C   0  0  0  0  0  0  0  0  0  0  0  0
    2.6000   -0.9299    0.1635 C   0  0  0  0  0  0  0  0  0  0  0  0
    3.2221    0.3952   -0.2546 C   0  0  0  0  0  0  0  0  0  0  0  0
  1  2  1  0
  2  3  1  0
  3  4  1  0
  4  5  2  0
  4  6  1  0
  6  7  1  0
  7  8  1  0
M  END
>  <target>  (238) 
-1.3

$$$$

     RDKit          3D

  7  6  0  0  0  0  0  0  0  0999 V2000
    2.1790    0.0504    0.4112 C   0  0  0  0  0  0  0  0  0  0  0  0
    1.0223    0.6405   -0.3604 C   0  0  0  0  0  0  0  0  0  0  0  0
    1.2270    1.5545   -1.1627 O   0  0  0  0  0  0  0  0  0  0  0  0
   -0.3858    0.0567   -0.1340 C   0  0  0  0  0  0  0  0  0  0  0  0
   -1.4368    1.0095   -0.7297 C   0  0  0  0  0  0  0  0  0  0  0  0
   -0.4806   -1.2992   -0.8443 C   0  0  0  0  0  0  0  0  0  0  0  0
   -0.6717   -0.1096    1.3640 C   0  0  0  0  0  0  0  0  0  0  0  0
  1  2  1  0
  2  3  2  0
  2  4  1  0
  4  5  1  0
  4  6  1  0
  4  7  1  0
M  END
>  <target>  (239) 
-0.72

$$$$

     RDKit          3D

  8  8  0  0  0  0  0  0  0  0999 V2000
   -2.4592   -0.5967    0.3276 O   0  0  0  0  0  0  0  0  0  0  0  0
   -1.1362   -0.2885    0.2169 C   0  0  0  0  0  0  0  0  0  0  0  0
   -0.7154    1.0051   -0.0806 C   0  0  0  0  0  0  0  0  0  0  0  0
    0.6515    1.2737   -0.1840 C   0  0  0  0  0  0  0  0  0  0  0  0
    1.5780    0.2482    0.0108 C   0  0  0  0  0  0  0  0  0  0  0  0
    3.2608    0.5833   -0.1175 Cl  0  0  0  0  0  0  0  0  0  0  0  0
    1.1499   -1.0451    0.3084 C   0  0  0  0  0  0  0  0  0  0  0  0
   -0.2157   -1.3135    0.4118 C   0  0  0  0  0  0  0  0  0  0  0  0
  1  2  1  0
  2  3  2  0
  3  4  1  0
  4  5  2  0
  5  6  1  0
  5  7  1  0
  7  8  2  0
  8  2  1  0
M  END
>  <target>  (240) 
-0.7

$$$$

     RDKit          3D

  7  7  0  0  0  0  0  0  0  0999 V2000
    2.3976    0.6833   -1.0897 O   0  0  0  0  0  0  0  0  0  0  0  0
    1.4178    0.3347   -0.4328 C   0  0  0  0  0  0  0  0  0  0  0  0
    0.6603    1.3102    0.4400 C   0  0  0  0  0  0  0  0  0  0  0  0
   -0.8417    1.1340    0.2639 C   0  0  0  0  0  0  0  0  0  0  0  0
   -1.2673   -0.3205    0.4520 C   0  0  0  0  0  0  0  0  0  0  0  0
   -0.5194   -1.2370   -0.5139 C   0  0  0  0  0  0  0  0  0  0  0  0
    0.9897   -1.1138   -0.3552 C   0  0  0  0  0  0  0  0  0  0  0  0
  1  2  2  0
  2  3  1  0
  3  4  1  0
  4  5  1  0
  5  6  1  0
  6  7  1  0
  7  2  1  0
M  END
>  <target>  (241) 
-0.6

$$$$

     RDKit          3D

  8  8  0  0  0  0  0  0  0  0999 V2000
    2.4045   -0.7447    0.1965 C   0  0  0  0  0  0  0  0  0  0  0  0
    1.0542   -0.1103    0.0437 C   0  0  0  0  0  0  0  0  0  0  0  0
    0.9333    1.2762   -0.0924 C   0  0  0  0  0  0  0  0  0  0  0  0
   -0.3276    1.8655   -0.1674 C   0  0  0  0  0  0  0  0  0  0  0  0
   -1.4751    1.0718   -0.1160 C   0  0  0  0  0  0  0  0  0  0  0  0
   -1.3761   -0.3181   -0.0281 C   0  0  0  0  0  0  0  0  0  0  0  0
   -2.5269   -1.0974    0.1472 N   0  0  0  0  0  0  0  0  0  0  0  0
   -0.1086   -0.8931    0.1079 C   0  0  0  0  0  0  0  0  0  0  0  0
  1  2  1  0
  2  3  2  0
  3  4  1  0
  4  5  2  0
  5  6  1  0
  6  7  1  0
  6  8  2  0
  8  2  1  0
M  END
>  <target>  (242) 
-0.85

$$$$

     RDKit          3D

  6  5  0  0  0  0  0  0  0  0999 V2000
   -1.0351   -0.9078   -1.3756 Cl  0  0  0  0  0  0  0  0  0  0  0  0
   -0.3876    0.0093    0.0090 C   0  0  0  0  0  0  0  0  0  0  0  0
   -0.9424    1.7007   -0.0854 Cl  0  0  0  0  0  0  0  0  0  0  0  0
   -0.9632   -0.7221    1.5292 Cl  0  0  0  0  0  0  0  0  0  0  0  0
    1.0824   -0.0260   -0.0251 C   0  0  0  0  0  0  0  0  0  0  0  0
    2.2458   -0.0540   -0.0521 N   0  0  0  0  0  0  0  0  0  0  0  0
  1  2  1  0
  2  3  1  0
  2  4  1  0
  2  5  1  0
  5  6  3  0
M  END
>  <target>  (243) 
-2.168

$$$$

     RDKit          3D

 20 21  0  0  0  0  0  0  0  0999 V2000
    4.9854    0.9644    0.5959 C   0  0  0  0  0  0  0  0  0  0  0  0
    4.3459   -0.2739    0.2075 N   0  0  0  0  0  0  0  0  0  0  0  0
    2.9868   -0.4627   -0.0203 C   0  0  0  0  0  0  0  0  0  0  0  0
    2.0003    0.4634    0.5729 C   0  0  0  0  0  0  0  0  0  0  0  0
    0.7191    0.4314    0.4365 N   0  0  0  0  0  0  0  0  0  0  0  0
    0.1618   -0.5710   -0.3306 N   0  0  0  0  0  0  0  0  0  0  0  0
   -1.2766   -0.4832   -0.4191 C   0  0  0  0  0  0  0  0  0  0  0  0
   -2.0634   -1.3893   -1.1428 C   0  0  0  0  0  0  0  0  0  0  0  0
   -3.4577   -1.2640   -1.2032 C   0  0  0  0  0  0  0  0  0  0  0  0
   -4.1011   -0.2233   -0.5420 C   0  0  0  0  0  0  0  0  0  0  0  0
   -3.3548    0.7083    0.1840 C   0  0  0  0  0  0  0  0  0  0  0  0
   -1.9567    0.5610    0.2429 C   0  0  0  0  0  0  0  0  0  0  0  0
   -4.0355    1.8314    0.9225 C   0  0  0  0  0  0  0  0  0  0  0  0
   -5.1313    2.3092    0.2667 F   0  0  0  0  0  0  0  0  0  0  0  0
   -4.4779    1.4511    2.1533 F   0  0  0  0  0  0  0  0  0  0  0  0
   -3.2316    2.9116    1.1309 F   0  0  0  0  0  0  0  0  0  0  0  0
    0.9416   -1.5652   -0.9444 C   0  0  0  0  0  0  0  0  0  0  0  0
    0.5189   -2.5003   -1.6243 O   0  0  0  0  0  0  0  0  0  0  0  0
    2.4200   -1.4412   -0.7394 C   0  0  0  0  0  0  0  0  0  0  0  0
    3.4187   -2.6367   -1.5138 Cl  0  0  0  0  0  0  0  0  0  0  0  0
  1  2  1  0
  2  3  1  0
  3  4  1  0
  4  5  2  0
  5  6  1  0
  6  7  1  0
  7  8  2  0
  8  9  1  0
  9 10  2  0
 10 11  1  0
 11 12  2  0
 11 13  1  0
 13 14  1  0
 13 15  1  0
 13 16  1  0
  6 17  1  0
 17 18  2  0
 17 19  1  0
 19 20  1  0
 12  7  1  0
 19  3  2  0
M  END
>  <target>  (244) 
-4.046

$$$$

     RDKit          3D

 11 10  0  0  0  0  0  0  0  0999 V2000
    5.1971    0.9000   -0.0152 C   0  0  0  0  0  0  0  0  0  0  0  0
    4.1148   -0.1466    0.1961 C   0  0  0  0  0  0  0  0  0  0  0  0
    2.7225    0.4838    0.2168 C   0  0  0  0  0  0  0  0  0  0  0  0
    1.6367   -0.5723    0.4296 C   0  0  0  0  0  0  0  0  0  0  0  0
    0.2426    0.0589    0.4508 C   0  0  0  0  0  0  0  0  0  0  0  0
   -0.8417   -1.0004    0.6600 C   0  0  0  0  0  0  0  0  0  0  0  0
   -2.2475   -0.4112    0.7994 C   0  0  0  0  0  0  0  0  0  0  0  0
   -2.7464    0.2706   -0.4698 C   0  0  0  0  0  0  0  0  0  0  0  0
   -4.1818    0.7226   -0.3043 C   0  0  0  0  0  0  0  0  0  0  0  0
   -4.4544    1.8535    0.0979 O   0  0  0  0  0  0  0  0  0  0  0  0
   -5.2608   -0.2817   -0.6129 C   0  0  0  0  0  0  0  0  0  0  0  0
  1  2  1  0
  2  3  1  0
  3  4  1  0
  4  5  1  0
  5  6  1  0
  6  7  1  0
  7  8  1  0
  8  9  1  0
  9 10  2  0
  9 11  1  0
M  END
>  <target>  (245) 
-3.3

$$$$

     RDKit          3D

 16 16  0  0  0  0  0  0  0  0999 V2000
   -2.1556    1.7534    1.3372 C   0  0  0  0  0  0  0  0  0  0  0  0
   -1.6061    0.3739    1.6708 C   0  0  0  0  0  0  0  0  0  0  0  0
   -1.8600   -0.5704    0.5921 N   0  0  0  0  0  0  0  0  0  0  0  0
   -3.1096   -1.3184    0.5750 C   0  0  0  0  0  0  0  0  0  0  0  0
   -2.8959   -2.7309    1.0988 C   0  0  0  0  0  0  0  0  0  0  0  0
   -1.0103   -0.6209   -0.4943 C   0  0  0  0  0  0  0  0  0  0  0  0
   -1.3001   -1.4361   -1.4949 N   0  0  0  0  0  0  0  0  0  0  0  0
   -0.4211   -1.4169   -2.4834 C   0  0  0  0  0  0  0  0  0  0  0  0
   -0.7542   -2.4628   -3.7953 Cl  0  0  0  0  0  0  0  0  0  0  0  0
    0.6870   -0.7025   -2.5829 N   0  0  0  0  0  0  0  0  0  0  0  0
    0.8894    0.0794   -1.5429 C   0  0  0  0  0  0  0  0  0  0  0  0
    2.0297    0.8634   -1.5987 N   0  0  0  0  0  0  0  0  0  0  0  0
    2.6764    1.2149   -0.3418 C   0  0  0  0  0  0  0  0  0  0  0  0
    3.4180    0.0129    0.2429 C   0  0  0  0  0  0  0  0  0  0  0  0
    3.6587    2.3543   -0.6166 C   0  0  0  0  0  0  0  0  0  0  0  0
    0.0801    0.1443   -0.4914 N   0  0  0  0  0  0  0  0  0  0  0  0
  1  2  1  0
  2  3  1  0
  3  4  1  0
  4  5  1  0
  3  6  1  0
  6  7  2  0
  7  8  1  0
  8  9  1  0
  8 10  2  0
 10 11  1  0
 11 12  1  0
 12 13  1  0
 13 14  1  0
 13 15  1  0
 11 16  2  0
 16  6  1  0
M  END
>  <target>  (246) 
-3.785

$$$$

     RDKit          3D

 12 12  0  0  0  0  0  0  0  0999 V2000
    3.9434    0.8264   -1.2800 C   0  0  0  0  0  0  0  0  0  0  0  0
    3.2473   -0.1765   -0.3807 C   0  0  0  0  0  0  0  0  0  0  0  0
    1.8514    0.1444   -0.3509 O   0  0  0  0  0  0  0  0  0  0  0  0
    1.1079   -0.6825    0.4260 C   0  0  0  0  0  0  0  0  0  0  0  0
    1.5306   -1.6337    1.0643 O   0  0  0  0  0  0  0  0  0  0  0  0
   -0.3244   -0.2792    0.4011 C   0  0  0  0  0  0  0  0  0  0  0  0
   -0.7853    0.8213   -0.3306 C   0  0  0  0  0  0  0  0  0  0  0  0
   -2.1444    1.1559   -0.3152 C   0  0  0  0  0  0  0  0  0  0  0  0
   -3.0659    0.3790    0.3914 C   0  0  0  0  0  0  0  0  0  0  0  0
   -4.3981    0.7903    0.4988 N   0  0  0  0  0  0  0  0  0  0  0  0
   -2.5923   -0.6817    1.1669 C   0  0  0  0  0  0  0  0  0  0  0  0
   -1.2362   -1.0246    1.1576 C   0  0  0  0  0  0  0  0  0  0  0  0
  1  2  1  0
  2  3  1  0
  3  4  1  0
  4  5  2  0
  4  6  1  0
  6  7  2  0
  7  8  1  0
  8  9  2  0
  9 10  1  0
  9 11  1  0
 11 12  2  0
 12  6  1  0
M  END
>  <target>  (247) 
-2.616

$$$$

     RDKit          3D

  9  9  0  0  0  0  0  0  0  0999 V2000
   -2.3347   -2.0889   -0.0069 Cl  0  0  0  0  0  0  0  0  0  0  0  0
   -1.0678   -0.9255   -0.0035 C   0  0  0  0  0  0  0  0  0  0  0  0
   -1.3786    0.4331   -0.0215 C   0  0  0  0  0  0  0  0  0  0  0  0
   -0.3511    1.3792   -0.0188 C   0  0  0  0  0  0  0  0  0  0  0  0
    0.9846    0.9645    0.0020 C   0  0  0  0  0  0  0  0  0  0  0  0
    2.2049    2.1867    0.0043 Cl  0  0  0  0  0  0  0  0  0  0  0  0
    1.2891   -0.4028    0.0201 C   0  0  0  0  0  0  0  0  0  0  0  0
    2.9152   -0.9872    0.0463 Cl  0  0  0  0  0  0  0  0  0  0  0  0
    0.2597   -1.3489    0.0173 C   0  0  0  0  0  0  0  0  0  0  0  0
  1  2  1  0
  2  3  2  0
  3  4  1  0
  4  5  2  0
  5  6  1  0
  5  7  1  0
  7  8  1  0
  7  9  2  0
  9  2  1  0
M  END
>  <target>  (248) 
-3.59

$$$$

     RDKit          3D

 23 26  0  0  0  0  0  0  0  0999 V2000
    3.9303   -1.0426    1.0327 C   0  0  0  0  0  0  0  0  0  0  0  0
    3.1307   -1.4846   -0.1340 C   0  0  0  0  0  0  0  0  0  0  0  0
    3.3241   -2.6180   -0.7783 N   0  0  0  0  0  0  0  0  0  0  0  0
    2.3142   -2.7741   -1.6857 N   0  0  0  0  0  0  0  0  0  0  0  0
    1.5181   -1.7315   -1.5878 C   0  0  0  0  0  0  0  0  0  0  0  0
    0.3188   -1.4415   -2.4036 C   0  0  0  0  0  0  0  0  0  0  0  0
   -0.8563   -1.3072   -1.5525 N   0  0  0  0  0  0  0  0  0  0  0  0
   -0.9225   -0.3549   -0.6856 C   0  0  0  0  0  0  0  0  0  0  0  0
   -2.1529   -0.3154    0.1606 C   0  0  0  0  0  0  0  0  0  0  0  0
   -3.3874   -0.3131   -0.5064 C   0  0  0  0  0  0  0  0  0  0  0  0
   -4.5776   -0.2594    0.2195 C   0  0  0  0  0  0  0  0  0  0  0  0
   -4.5419   -0.2196    1.6121 C   0  0  0  0  0  0  0  0  0  0  0  0
   -3.3166   -0.2459    2.2817 C   0  0  0  0  0  0  0  0  0  0  0  0
   -2.1185   -0.3008    1.5616 C   0  0  0  0  0  0  0  0  0  0  0  0
   -0.6504   -0.3960    2.4679 Cl  0  0  0  0  0  0  0  0  0  0  0  0
    0.1118    0.7109   -0.4842 C   0  0  0  0  0  0  0  0  0  0  0  0
   -0.3534    2.0245   -0.2944 C   0  0  0  0  0  0  0  0  0  0  0  0
    0.5385    3.0484    0.0129 C   0  0  0  0  0  0  0  0  0  0  0  0
   -0.0464    4.6478    0.2500 Cl  0  0  0  0  0  0  0  0  0  0  0  0
    1.8985    2.7856    0.1291 C   0  0  0  0  0  0  0  0  0  0  0  0
    2.3774    1.4889   -0.0738 C   0  0  0  0  0  0  0  0  0  0  0  0
    1.4923    0.4431   -0.3856 C   0  0  0  0  0  0  0  0  0  0  0  0
    2.0125   -0.8495   -0.6514 N   0  0  0  0  0  0  0  0  0  0  0  0
  1  2  1  0
  2  3  2  0
  3  4  1  0
  4  5  2  0
  5  6  1  0
  6  7  1  0
  7  8  2  0
  8  9  1  0
  9 10  2  0
 10 11  1  0
 11 12  2  0
 12 13  1  0
 13 14  2  0
 14 15  1  0
  8 16  1  0
 16 17  2  0
 17 18  1  0
 18 19  1  0
 18 20  2  0
 20 21  1  0
 21 22  2  0
 22 23  1  0
 14  9  1  0
 22 16  1  0
 23  2  1  0
 23  5  1  0
M  END
>  <target>  (249) 
-4.09

$$$$

     RDKit          3D

  8  8  0  0  0  0  0  0  0  0999 V2000
    2.0961    1.2535   -0.3356 O   0  0  0  0  0  0  0  0  0  0  0  0
    0.8579    0.7101   -0.1442 C   0  0  0  0  0  0  0  0  0  0  0  0
   -0.2392    1.5500   -0.0207 C   0  0  0  0  0  0  0  0  0  0  0  0
   -1.5036    0.9927    0.1749 C   0  0  0  0  0  0  0  0  0  0  0  0
   -1.6570   -0.3962    0.2446 C   0  0  0  0  0  0  0  0  0  0  0  0
   -0.5472   -1.2365    0.1193 C   0  0  0  0  0  0  0  0  0  0  0  0
    0.7089   -0.6734   -0.0753 C   0  0  0  0  0  0  0  0  0  0  0  0
    1.8333   -1.4415   -0.2052 O   0  0  0  0  0  0  0  0  0  0  0  0
  1  2  1  0
  2  3  2  0
  3  4  1  0
  4  5  2  0
  5  6  1  0
  6  7  2  0
  7  8  1  0
  7  2  1  0
M  END
>  <target>  (250) 
0.62

$$$$

     RDKit          3D

 19 21  0  0  0  0  0  0  0  0999 V2000
    1.7468   -2.6058   -1.5179 C   0  0  0  0  0  0  0  0  0  0  0  0
    0.8478   -2.3681   -0.3045 C   0  0  0  0  0  0  0  0  0  0  0  0
    0.3629   -0.9745   -0.2599 N   0  0  0  0  0  0  0  0  0  0  0  0
   -0.8789   -0.8465    0.4152 C   0  0  0  0  0  0  0  0  0  0  0  0
   -1.2958   -1.8794    1.2030 N   0  0  0  0  0  0  0  0  0  0  0  0
   -2.4798   -1.7897    1.8380 C   0  0  0  0  0  0  0  0  0  0  0  0
   -3.3163   -0.7045    1.7273 C   0  0  0  0  0  0  0  0  0  0  0  0
   -2.9094    0.3458    0.9134 C   0  0  0  0  0  0  0  0  0  0  0  0
   -1.6742    0.3067    0.2385 C   0  0  0  0  0  0  0  0  0  0  0  0
   -1.3274    1.3825   -0.6447 N   0  0  0  0  0  0  0  0  0  0  0  0
   -2.4162    2.1341   -1.2650 C   0  0  0  0  0  0  0  0  0  0  0  0
   -0.0329    1.8338   -0.9275 C   0  0  0  0  0  0  0  0  0  0  0  0
    0.1745    2.7629   -1.7156 O   0  0  0  0  0  0  0  0  0  0  0  0
    1.1517    1.3246   -0.2129 C   0  0  0  0  0  0  0  0  0  0  0  0
    2.1599    2.2500    0.1090 C   0  0  0  0  0  0  0  0  0  0  0  0
    3.3416    1.8174    0.6924 C   0  0  0  0  0  0  0  0  0  0  0  0
    3.4821    0.4653    0.9157 C   0  0  0  0  0  0  0  0  0  0  0  0
    2.5353   -0.4461    0.6030 N   0  0  0  0  0  0  0  0  0  0  0  0
    1.3638   -0.0255    0.0447 C   0  0  0  0  0  0  0  0  0  0  0  0
  1  2  1  0
  2  3  1  0
  3  4  1  0
  4  5  2  0
  5  6  1  0
  6  7  2  0
  7  8  1  0
  8  9  2  0
  9 10  1  0
 10 11  1  0
 10 12  1  0
 12 13  2  0
 12 14  1  0
 14 15  2  0
 15 16  1  0
 16 17  2  0
 17 18  1  0
 18 19  2  0
  9  4  1  0
 19  3  1  0
 19 14  1  0
M  END
>  <target>  (251) 
-2.62

$$$$

     RDKit          3D

  3  2  0  0  0  0  0  0  0  0999 V2000
    1.2927   -0.3342    0.4070 C   0  0  0  0  0  0  0  0  0  0  0  0
   -0.1646   -1.1199   -0.3205 S   0  0  0  0  0  0  0  0  0  0  0  0
   -1.2999    0.2851   -0.2334 C   0  0  0  0  0  0  0  0  0  0  0  0
  1  2  1  0
  2  3  1  0
M  END
>  <target>  (252) 
-0.45

$$$$

     RDKit          3D

  8  8  0  0  0  0  0  0  0  0999 V2000
    2.2065   -0.1021   -0.0277 C   0  0  0  0  0  0  0  0  0  0  0  0
    0.7051   -0.0406   -0.0088 C   0  0  0  0  0  0  0  0  0  0  0  0
   -0.0288   -1.2381    0.0126 C   0  0  0  0  0  0  0  0  0  0  0  0
   -1.4250   -1.2228    0.0306 C   0  0  0  0  0  0  0  0  0  0  0  0
   -2.1093   -0.0107    0.0275 C   0  0  0  0  0  0  0  0  0  0  0  0
   -1.3974    1.1876    0.0064 C   0  0  0  0  0  0  0  0  0  0  0  0
    0.0014    1.1744   -0.0116 C   0  0  0  0  0  0  0  0  0  0  0  0
    0.8928    2.8520   -0.0398 Br  0  0  0  0  0  0  0  0  0  0  0  0
  1  2  1  0
  2  3  2  0
  3  4  1  0
  4  5  2  0
  5  6  1  0
  6  7  2  0
  7  8  1  0
  7  2  1  0
M  END
>  <target>  (253) 
-2.23

$$$$

     RDKit          3D

  6  5  0  0  0  0  0  0  0  0999 V2000
   -1.9865    0.5538   -0.6485 C   0  0  0  0  0  0  0  0  0  0  0  0
   -0.8936   -0.4194   -0.2513 C   0  0  0  0  0  0  0  0  0  0  0  0
    0.3520    0.2874   -0.2384 O   0  0  0  0  0  0  0  0  0  0  0  0
    1.4126   -0.4767    0.1035 C   0  0  0  0  0  0  0  0  0  0  0  0
    1.3923   -1.6629    0.3878 O   0  0  0  0  0  0  0  0  0  0  0  0
    2.5387    0.2691    0.0893 N   0  0  0  0  0  0  0  0  0  0  0  0
  1  2  1  0
  2  3  1  0
  3  4  1  0
  4  5  2  0
  4  6  1  0
M  END
>  <target>  (254) 
0.85

$$$$

     RDKit          3D

 28 31  0  0  0  0  0  0  0  0999 V2000
    5.2167    1.2627    2.9082 C   0  0  0  0  0  0  0  0  0  0  0  0
    4.7563    0.4478    1.7397 C   0  0  0  0  0  0  0  0  0  0  0  0
    5.3631   -0.5077    1.2768 O   0  0  0  0  0  0  0  0  0  0  0  0
    3.5604    0.9147    1.2881 O   0  0  0  0  0  0  0  0  0  0  0  0
    3.0143    0.2960    0.0976 C   0  0  0  0  0  0  0  0  0  0  0  0
    2.6596   -1.1809    0.3629 C   0  0  0  0  0  0  0  0  0  0  0  0
    1.3707   -1.4804   -0.4074 C   0  0  0  0  0  0  0  0  0  0  0  0
    0.8952   -0.1500   -1.0151 C   0  0  0  0  0  0  0  0  0  0  0  0
   -0.6373    0.0269   -1.1110 C   0  0  0  0  0  0  0  0  0  0  0  0
   -1.2914   -1.0696   -1.9068 C   0  0  0  0  0  0  0  0  0  0  0  0
   -2.4947   -1.6063   -1.6303 C   0  0  0  0  0  0  0  0  0  0  0  0
   -3.0308   -2.7043   -2.5180 C   0  0  0  0  0  0  0  0  0  0  0  0
   -3.3171   -1.1139   -0.5101 C   0  0  0  0  0  0  0  0  0  0  0  0
   -4.4109   -1.7848   -0.0994 C   0  0  0  0  0  0  0  0  0  0  0  0
   -5.2808   -1.3080    1.0005 C   0  0  0  0  0  0  0  0  0  0  0  0
   -6.2759   -1.9620    1.3045 O   0  0  0  0  0  0  0  0  0  0  0  0
   -4.9505   -0.0036    1.6700 C   0  0  0  0  0  0  0  0  0  0  0  0
   -3.4559    0.2736    1.6100 C   0  0  0  0  0  0  0  0  0  0  0  0
   -2.8633    0.1960    0.1735 C   0  0  0  0  0  0  0  0  0  0  0  0
   -3.3882    1.3969   -0.6489 C   0  0  0  0  0  0  0  0  0  0  0  0
   -1.2977    0.1887    0.2756 C   0  0  0  0  0  0  0  0  0  0  0  0
   -0.6725    1.3997    0.9862 C   0  0  0  0  0  0  0  0  0  0  0  0
    0.8391    1.2138    1.1514 C   0  0  0  0  0  0  0  0  0  0  0  0
    1.6045    0.9417   -0.1795 C   0  0  0  0  0  0  0  0  0  0  0  0
    1.6914    2.2706   -0.9564 C   0  0  0  0  0  0  0  0  0  0  0  0
    4.0318    0.5344   -1.0634 C   0  0  0  0  0  0  0  0  0  0  0  0
    4.2761   -0.5536   -2.0779 C   0  0  0  0  0  0  0  0  0  0  0  0
    4.6513    1.6013   -1.1574 O   0  0  0  0  0  0  0  0  0  0  0  0
  1  2  1  0
  2  3  2  0
  2  4  1  0
  4  5  1  0
  5  6  1  0
  6  7  1  0
  7  8  1  0
  8  9  1  0
  9 10  1  0
 10 11  2  0
 11 12  1  0
 11 13  1  0
 13 14  2  0
 14 15  1  0
 15 16  2  0
 15 17  1  0
 17 18  1  0
 18 19  1  0
 19 20  1  0
 19 21  1  0
 21 22  1  0
 22 23  1  0
 23 24  1  0
 24 25  1  0
  5 26  1  0
 26 27  1  0
 26 28  2  0
 19 13  1  0
 21  9  1  0
 24  5  1  0
 24  8  1  0
M  END
>  <target>  (255) 
-5.35

$$$$

     RDKit          3D

  8  7  0  0  0  0  0  0  0  0999 V2000
    1.8459    0.1229    1.1568 C   0  0  0  0  0  0  0  0  0  0  0  0
    1.2367    0.4313   -0.2120 C   0  0  0  0  0  0  0  0  0  0  0  0
    2.3070    0.2445   -1.2969 C   0  0  0  0  0  0  0  0  0  0  0  0
   -0.0081   -0.4374   -0.5196 C   0  0  0  0  0  0  0  0  0  0  0  0
   -0.5269   -0.0759   -1.8029 O   0  0  0  0  0  0  0  0  0  0  0  0
   -1.1435   -0.3803    0.5328 C   0  0  0  0  0  0  0  0  0  0  0  0
   -2.2922   -1.3185    0.1403 C   0  0  0  0  0  0  0  0  0  0  0  0
   -1.7006    1.0292    0.7530 C   0  0  0  0  0  0  0  0  0  0  0  0
  1  2  1  0
  2  3  1  0
  2  4  1  0
  4  5  1  0
  4  6  1  0
  6  7  1  0
  6  8  1  0
M  END
>  <target>  (256) 
-1.22

$$$$

     RDKit          3D

 10 11  0  0  0  0  0  0  0  0999 V2000
   -2.4832   -0.4927   -0.0124 C   0  0  0  0  0  0  0  0  0  0  0  0
   -2.3681    0.8905    0.0911 C   0  0  0  0  0  0  0  0  0  0  0  0
   -1.1056    1.4851    0.1234 C   0  0  0  0  0  0  0  0  0  0  0  0
    0.0585    0.7027    0.0526 C   0  0  0  0  0  0  0  0  0  0  0  0
    1.3361    1.2849    0.0838 C   0  0  0  0  0  0  0  0  0  0  0  0
    2.4832    0.4927    0.0124 C   0  0  0  0  0  0  0  0  0  0  0  0
    2.3681   -0.8905   -0.0911 C   0  0  0  0  0  0  0  0  0  0  0  0
    1.1056   -1.4851   -0.1234 C   0  0  0  0  0  0  0  0  0  0  0  0
   -0.0585   -0.7027   -0.0526 C   0  0  0  0  0  0  0  0  0  0  0  0
   -1.3361   -1.2849   -0.0838 C   0  0  0  0  0  0  0  0  0  0  0  0
  1  2  2  0
  2  3  1  0
  3  4  2  0
  4  5  1  0
  5  6  2  0
  6  7  1  0
  7  8  2  0
  8  9  1  0
  9 10  2  0
 10  1  1  0
  9  4  1  0
M  END
>  <target>  (257) 
-3.6

$$$$

     RDKit          3D

  9  9  0  0  0  0  0  0  0  0999 V2000
   -3.3436    0.2875   -0.0610 C   0  0  0  0  0  0  0  0  0  0  0  0
   -1.9805   -0.3870   -0.0408 C   0  0  0  0  0  0  0  0  0  0  0  0
   -0.9366    0.6206   -0.1812 N   0  0  0  0  0  0  0  0  0  0  0  0
    0.4077    0.2359   -0.1020 C   0  0  0  0  0  0  0  0  0  0  0  0
    1.3759    1.2339    0.0871 C   0  0  0  0  0  0  0  0  0  0  0  0
    2.7409    0.9318    0.1123 C   0  0  0  0  0  0  0  0  0  0  0  0
    3.1654   -0.3784   -0.0800 C   0  0  0  0  0  0  0  0  0  0  0  0
    2.2249   -1.3775   -0.3108 C   0  0  0  0  0  0  0  0  0  0  0  0
    0.8599   -1.0679   -0.3355 C   0  0  0  0  0  0  0  0  0  0  0  0
  1  2  1  0
  2  3  1  0
  3  4  1  0
  4  5  2  0
  5  6  1  0
  6  7  2  0
  7  8  1  0
  8  9  2  0
  9  4  1  0
M  END
>  <target>  (258) 
-1.7

$$$$

     RDKit          3D

 19 21  0  0  0  0  0  0  0  0999 V2000
   -0.5459    4.1965    0.3567 O   0  0  0  0  0  0  0  0  0  0  0  0
   -0.2664    3.1052   -0.1056 C   0  0  0  0  0  0  0  0  0  0  0  0
    0.0641    2.8463   -1.3861 N   0  0  0  0  0  0  0  0  0  0  0  0
    0.1836    1.5047   -1.5870 C   0  0  0  0  0  0  0  0  0  0  0  0
    0.3968    1.0043   -2.6849 O   0  0  0  0  0  0  0  0  0  0  0  0
   -0.0144    0.7630   -0.2259 C   0  0  0  0  0  0  0  0  0  0  0  0
   -0.2635    1.9347    0.6012 N   0  0  0  0  0  0  0  0  0  0  0  0
    1.2828    0.0350    0.1555 C   0  0  0  0  0  0  0  0  0  0  0  0
    1.6804   -1.1045   -0.5715 C   0  0  0  0  0  0  0  0  0  0  0  0
    2.8530   -1.7915   -0.2517 C   0  0  0  0  0  0  0  0  0  0  0  0
    3.6534   -1.3527    0.7985 C   0  0  0  0  0  0  0  0  0  0  0  0
    3.2836   -0.2259    1.5276 C   0  0  0  0  0  0  0  0  0  0  0  0
    2.1103    0.4637    1.2097 C   0  0  0  0  0  0  0  0  0  0  0  0
   -1.2541   -0.1409   -0.1557 C   0  0  0  0  0  0  0  0  0  0  0  0
   -2.1255   -0.3308   -1.2420 C   0  0  0  0  0  0  0  0  0  0  0  0
   -3.2507   -1.1527   -1.1258 C   0  0  0  0  0  0  0  0  0  0  0  0
   -3.5285   -1.7986    0.0754 C   0  0  0  0  0  0  0  0  0  0  0  0
   -2.6815   -1.6262    1.1650 C   0  0  0  0  0  0  0  0  0  0  0  0
   -1.5573   -0.8057    1.0519 C   0  0  0  0  0  0  0  0  0  0  0  0
  1  2  2  0
  2  3  1  0
  3  4  1  0
  4  5  2  0
  4  6  1  0
  6  7  1  0
  6  8  1  0
  8  9  2  0
  9 10  1  0
 10 11  2  0
 11 12  1  0
 12 13  2  0
  6 14  1  0
 14 15  2  0
 15 16  1  0
 16 17  2  0
 17 18  1  0
 18 19  2  0
  7  2  1  0
 13  8  1  0
 19 14  1  0
M  END
>  <target>  (259) 
-4.0969999999999995

$$$$

     RDKit          3D

 20 23  0  0  0  0  0  0  0  0999 V2000
    0.3601    2.3145   -1.1279 C   0  0  0  0  0  0  0  0  0  0  0  0
   -0.2493    1.1134   -0.4269 C   0  0  0  0  0  0  0  0  0  0  0  0
   -1.6574    1.1514   -0.1790 C   0  0  0  0  0  0  0  0  0  0  0  0
   -2.4183    2.3487   -0.2614 C   0  0  0  0  0  0  0  0  0  0  0  0
   -3.7882    2.3906   -0.0080 C   0  0  0  0  0  0  0  0  0  0  0  0
   -4.4442    1.2294    0.3451 C   0  0  0  0  0  0  0  0  0  0  0  0
   -3.7243    0.0384    0.4317 C   0  0  0  0  0  0  0  0  0  0  0  0
   -2.3301   -0.0377    0.1641 C   0  0  0  0  0  0  0  0  0  0  0  0
   -1.5897   -1.2518    0.2085 C   0  0  0  0  0  0  0  0  0  0  0  0
   -2.3281   -2.5676    0.3920 C   0  0  0  0  0  0  0  0  0  0  0  0
   -0.1596   -1.2442    0.1323 C   0  0  0  0  0  0  0  0  0  0  0  0
    0.5747   -2.4375    0.2918 C   0  0  0  0  0  0  0  0  0  0  0  0
    1.9621   -2.4841    0.2410 C   0  0  0  0  0  0  0  0  0  0  0  0
    2.6970   -1.3182    0.1145 C   0  0  0  0  0  0  0  0  0  0  0  0
    4.1009   -1.4076    0.1503 C   0  0  0  0  0  0  0  0  0  0  0  0
    4.8941   -0.2684    0.1220 C   0  0  0  0  0  0  0  0  0  0  0  0
    4.2834    0.9706    0.0869 C   0  0  0  0  0  0  0  0  0  0  0  0
    2.8860    1.0572    0.0380 C   0  0  0  0  0  0  0  0  0  0  0  0
    2.0264   -0.0755   -0.0083 C   0  0  0  0  0  0  0  0  0  0  0  0
    0.5574   -0.0380   -0.1032 C   0  0  0  0  0  0  0  0  0  0  0  0
  1  2  1  0
  2  3  2  0
  3  4  1  0
  4  5  2  0
  5  6  1  0
  6  7  2  0
  7  8  1  0
  8  9  2  0
  9 10  1  0
  9 11  1  0
 11 12  2  0
 12 13  1  0
 13 14  2  0
 14 15  1  0
 15 16  2  0
 16 17  1  0
 17 18  2  0
 18 19  1  0
 19 20  2  0
 20  2  1  0
  8  3  1  0
 20 11  1  0
 19 14  1  0
M  END
>  <target>  (260) 
-7.02

$$$$

     RDKit          3D

 23 24  0  0  0  0  0  0  0  0999 V2000
   -2.0936    1.7882    2.5595 C   0  0  0  0  0  0  0  0  0  0  0  0
   -2.1359    2.0679    1.0711 C   0  0  0  0  0  0  0  0  0  0  0  0
   -2.6069    0.9031    0.4102 O   0  0  0  0  0  0  0  0  0  0  0  0
   -2.5543    0.8331   -1.2121 P   0  0  0  0  0  0  0  0  0  0  0  0
   -3.6585    2.1836   -2.0820 S   0  0  0  0  0  0  0  0  0  0  0  0
   -3.1382   -0.6716   -1.4136 O   0  0  0  0  0  0  0  0  0  0  0  0
   -4.4611   -0.9704   -0.9939 C   0  0  0  0  0  0  0  0  0  0  0  0
   -4.5638   -2.4659   -0.7736 C   0  0  0  0  0  0  0  0  0  0  0  0
   -0.5316    0.6918   -1.7694 S   0  0  0  0  0  0  0  0  0  0  0  0
    0.1131   -0.6074   -0.6609 C   0  0  0  0  0  0  0  0  0  0  0  0
   -0.1242   -2.0070   -1.2486 C   0  0  0  0  0  0  0  0  0  0  0  0
    0.3836   -3.2782   -0.0930 Cl  0  0  0  0  0  0  0  0  0  0  0  0
    1.5084   -0.3150   -0.3511 N   0  0  0  0  0  0  0  0  0  0  0  0
    1.8841    0.3936    0.7588 C   0  0  0  0  0  0  0  0  0  0  0  0
    1.1868    0.8531    1.6434 O   0  0  0  0  0  0  0  0  0  0  0  0
    3.3356    0.5446    0.6926 C   0  0  0  0  0  0  0  0  0  0  0  0
    4.2170    1.1477    1.5686 C   0  0  0  0  0  0  0  0  0  0  0  0
    5.5719    1.1371    1.2199 C   0  0  0  0  0  0  0  0  0  0  0  0
    6.0054    0.5361    0.0195 C   0  0  0  0  0  0  0  0  0  0  0  0
    5.0912   -0.0646   -0.8523 C   0  0  0  0  0  0  0  0  0  0  0  0
    3.7601   -0.0441   -0.4834 C   0  0  0  0  0  0  0  0  0  0  0  0
    2.5791   -0.5709   -1.1643 C   0  0  0  0  0  0  0  0  0  0  0  0
    2.6130   -1.1107   -2.2530 O   0  0  0  0  0  0  0  0  0  0  0  0
  1  2  1  0
  2  3  1  0
  3  4  1  0
  4  5  2  0
  4  6  1  0
  6  7  1  0
  7  8  1  0
  4  9  1  0
  9 10  1  0
 10 11  1  0
 11 12  1  0
 10 13  1  0
 13 14  1  0
 14 15  2  0
 14 16  1  0
 16 17  2  0
 17 18  1  0
 18 19  2  0
 19 20  1  0
 20 21  2  0
 21 22  1  0
 22 23  2  0
 22 13  1  0
 21 16  1  0
M  END
>  <target>  (261) 
-6.34

$$$$

     RDKit          3D

 21 22  0  0  0  0  0  0  0  0999 V2000
   -4.8589    2.7329    0.1630 C   0  0  0  0  0  0  0  0  0  0  0  0
   -4.8111    1.3328    0.4067 O   0  0  0  0  0  0  0  0  0  0  0  0
   -3.6445    0.6917    0.0943 C   0  0  0  0  0  0  0  0  0  0  0  0
   -3.6440   -0.6789    0.3527 C   0  0  0  0  0  0  0  0  0  0  0  0
   -2.5170   -1.4583    0.0786 C   0  0  0  0  0  0  0  0  0  0  0  0
   -1.3614   -0.8793   -0.4688 C   0  0  0  0  0  0  0  0  0  0  0  0
   -1.3686    0.5021   -0.7176 C   0  0  0  0  0  0  0  0  0  0  0  0
   -2.5000    1.2798   -0.4401 C   0  0  0  0  0  0  0  0  0  0  0  0
   -0.1355   -1.7555   -0.7735 C   0  0  0  0  0  0  0  0  0  0  0  0
    1.1297   -1.1844   -0.1055 C   0  0  0  0  0  0  0  0  0  0  0  0
    1.2835   -1.3574    1.2828 C   0  0  0  0  0  0  0  0  0  0  0  0
    2.4048   -0.8615    1.9535 C   0  0  0  0  0  0  0  0  0  0  0  0
    3.4012   -0.1764    1.2619 C   0  0  0  0  0  0  0  0  0  0  0  0
    4.4479    0.2483    2.0318 O   0  0  0  0  0  0  0  0  0  0  0  0
    5.5029    0.9291    1.3643 C   0  0  0  0  0  0  0  0  0  0  0  0
    3.2559    0.0188   -0.1092 C   0  0  0  0  0  0  0  0  0  0  0  0
    2.1296   -0.4748   -0.7849 C   0  0  0  0  0  0  0  0  0  0  0  0
   -0.0555   -2.2386   -2.2686 C   0  0  0  0  0  0  0  0  0  0  0  0
    1.3839   -3.3022   -2.5406 Cl  0  0  0  0  0  0  0  0  0  0  0  0
   -1.4953   -3.2662   -2.6890 Cl  0  0  0  0  0  0  0  0  0  0  0  0
   -0.0024   -0.9133   -3.4854 Cl  0  0  0  0  0  0  0  0  0  0  0  0
  1  2  1  0
  2  3  1  0
  3  4  2  0
  4  5  1  0
  5  6  2  0
  6  7  1  0
  7  8  2  0
  6  9  1  0
  9 10  1  0
 10 11  2  0
 11 12  1  0
 12 13  2  0
 13 14  1  0
 14 15  1  0
 13 16  1  0
 16 17  2  0
  9 18  1  0
 18 19  1  0
 18 20  1  0
 18 21  1  0
  8  3  1  0
 17 10  1  0
M  END
>  <target>  (262) 
-6.89

$$$$

     RDKit          3D

 24 25  0  0  0  0  0  0  0  0999 V2000
   -3.0711   -2.1414    1.2732 F   0  0  0  0  0  0  0  0  0  0  0  0
   -3.6008   -0.9317    1.0456 C   0  0  0  0  0  0  0  0  0  0  0  0
   -4.9635   -0.7715    1.3097 C   0  0  0  0  0  0  0  0  0  0  0  0
   -5.5775    0.4599    1.0950 C   0  0  0  0  0  0  0  0  0  0  0  0
   -4.8222    1.5265    0.6160 C   0  0  0  0  0  0  0  0  0  0  0  0
   -3.4617    1.3539    0.3560 C   0  0  0  0  0  0  0  0  0  0  0  0
   -2.7778    2.4127   -0.1045 F   0  0  0  0  0  0  0  0  0  0  0  0
   -2.8254    0.1274    0.5642 C   0  0  0  0  0  0  0  0  0  0  0  0
   -1.3755   -0.0764    0.2928 C   0  0  0  0  0  0  0  0  0  0  0  0
   -0.8443   -1.1664    0.4858 O   0  0  0  0  0  0  0  0  0  0  0  0
   -0.6559    1.0105   -0.1841 N   0  0  0  0  0  0  0  0  0  0  0  0
    0.6815    1.0903   -0.5112 C   0  0  0  0  0  0  0  0  0  0  0  0
    1.1169    2.1634   -0.9192 O   0  0  0  0  0  0  0  0  0  0  0  0
    1.4005   -0.0618   -0.3429 N   0  0  0  0  0  0  0  0  0  0  0  0
    2.7703   -0.2852   -0.5900 C   0  0  0  0  0  0  0  0  0  0  0  0
    3.6480    0.6901   -1.0703 C   0  0  0  0  0  0  0  0  0  0  0  0
    4.9935    0.3741   -1.2852 C   0  0  0  0  0  0  0  0  0  0  0  0
    6.0593    1.5915   -1.8780 Cl  0  0  0  0  0  0  0  0  0  0  0  0
    5.4692   -0.9100   -1.0236 C   0  0  0  0  0  0  0  0  0  0  0  0
    6.7633   -1.2008   -1.2341 F   0  0  0  0  0  0  0  0  0  0  0  0
    4.6059   -1.8893   -0.5455 C   0  0  0  0  0  0  0  0  0  0  0  0
    5.1863   -3.4785   -0.2199 Cl  0  0  0  0  0  0  0  0  0  0  0  0
    3.2658   -1.5726   -0.3320 C   0  0  0  0  0  0  0  0  0  0  0  0
    2.4216   -2.5104    0.1299 F   0  0  0  0  0  0  0  0  0  0  0  0
  1  2  1  0
  2  3  2  0
  3  4  1  0
  4  5  2  0
  5  6  1  0
  6  7  1  0
  6  8  2  0
  8  9  1  0
  9 10  2  0
  9 11  1  0
 11 12  1  0
 12 13  2  0
 12 14  1  0
 14 15  1  0
 15 16  2  0
 16 17  1  0
 17 18  1  0
 17 19  2  0
 19 20  1  0
 19 21  1  0
 21 22  1  0
 21 23  2  0
 23 24  1  0
  8  2  1  0
 23 15  1  0
M  END
>  <target>  (263) 
-7.28

$$$$

     RDKit          3D

 27 29  0  0  0  0  0  0  0  0999 V2000
   -0.7680    1.7181   -2.6495 O   0  0  0  0  0  0  0  0  0  0  0  0
   -1.0393    0.7756   -1.9248 C   0  0  0  0  0  0  0  0  0  0  0  0
   -0.2148   -0.2184   -1.5217 N   0  0  0  0  0  0  0  0  0  0  0  0
    1.1779   -0.3049   -1.8588 C   0  0  0  0  0  0  0  0  0  0  0  0
    1.9075    0.4172   -0.8663 O   0  0  0  0  0  0  0  0  0  0  0  0
    3.2507    0.4074   -1.0804 C   0  0  0  0  0  0  0  0  0  0  0  0
    3.8058   -0.1526   -2.0143 O   0  0  0  0  0  0  0  0  0  0  0  0
    3.9388    1.1917    0.0119 C   0  0  0  0  0  0  0  0  0  0  0  0
    5.4551    1.2153   -0.1710 C   0  0  0  0  0  0  0  0  0  0  0  0
    6.1371    2.0114    0.9408 C   0  0  0  0  0  0  0  0  0  0  0  0
    7.6466    2.0371    0.7621 C   0  0  0  0  0  0  0  0  0  0  0  0
   -0.8399   -1.0180   -0.6071 C   0  0  0  0  0  0  0  0  0  0  0  0
   -0.3131   -1.9599   -0.0228 O   0  0  0  0  0  0  0  0  0  0  0  0
   -2.3009   -0.5047   -0.4040 C   0  0  0  0  0  0  0  0  0  0  0  0
   -2.2760    0.5829   -1.3668 N   0  0  0  0  0  0  0  0  0  0  0  0
   -2.5719    0.1013    0.9831 C   0  0  0  0  0  0  0  0  0  0  0  0
   -3.8559    0.6051    1.2814 C   0  0  0  0  0  0  0  0  0  0  0  0
   -4.1361    1.1854    2.5201 C   0  0  0  0  0  0  0  0  0  0  0  0
   -3.1391    1.2798    3.4854 C   0  0  0  0  0  0  0  0  0  0  0  0
   -1.8638    0.7936    3.2131 C   0  0  0  0  0  0  0  0  0  0  0  0
   -1.5805    0.2115    1.9740 C   0  0  0  0  0  0  0  0  0  0  0  0
   -3.2987   -1.6077   -0.7859 C   0  0  0  0  0  0  0  0  0  0  0  0
   -3.4167   -2.7516    0.0281 C   0  0  0  0  0  0  0  0  0  0  0  0
   -4.3183   -3.7706   -0.2851 C   0  0  0  0  0  0  0  0  0  0  0  0
   -5.1199   -3.6680   -1.4178 C   0  0  0  0  0  0  0  0  0  0  0  0
   -5.0187   -2.5488   -2.2394 C   0  0  0  0  0  0  0  0  0  0  0  0
   -4.1153   -1.5281   -1.9293 C   0  0  0  0  0  0  0  0  0  0  0  0
  1  2  2  0
  2  3  1  0
  3  4  1  0
  4  5  1  0
  5  6  1  0
  6  7  2  0
  6  8  1  0
  8  9  1  0
  9 10  1  0
 10 11  1  0
  3 12  1  0
 12 13  2  0
 12 14  1  0
 14 15  1  0
 14 16  1  0
 16 17  2  0
 17 18  1  0
 18 19  2  0
 19 20  1  0
 20 21  2  0
 14 22  1  0
 22 23  2  0
 23 24  1  0
 24 25  2  0
 25 26  1  0
 26 27  2  0
 15  2  1  0
 21 16  1  0
 27 22  1  0
M  END
>  <target>  (264) 
-4.678

$$$$

     RDKit          3D

 13 13  0  0  0  0  0  0  0  0999 V2000
   -2.8931    0.3652    1.0540 C   0  0  0  0  0  0  0  0  0  0  0  0
   -2.4479   -0.1018   -0.2529 N   0  0  0  0  0  0  0  0  0  0  0  0
   -3.4474   -0.0345   -1.3066 C   0  0  0  0  0  0  0  0  0  0  0  0
   -1.1087   -0.0981   -0.6586 C   0  0  0  0  0  0  0  0  0  0  0  0
   -0.7942    0.0255   -1.8394 O   0  0  0  0  0  0  0  0  0  0  0  0
   -0.2149   -0.2804    0.3737 N   0  0  0  0  0  0  0  0  0  0  0  0
    1.1887   -0.1686    0.3185 C   0  0  0  0  0  0  0  0  0  0  0  0
    1.8768    0.4262   -0.7423 C   0  0  0  0  0  0  0  0  0  0  0  0
    3.2731    0.5175   -0.7207 C   0  0  0  0  0  0  0  0  0  0  0  0
    3.9850    0.0202    0.3669 C   0  0  0  0  0  0  0  0  0  0  0  0
    5.7009    0.1341    0.3944 Cl  0  0  0  0  0  0  0  0  0  0  0  0
    3.3124   -0.5650    1.4360 C   0  0  0  0  0  0  0  0  0  0  0  0
    1.9171   -0.6555    1.4123 C   0  0  0  0  0  0  0  0  0  0  0  0
  1  2  1  0
  2  3  1  0
  2  4  1  0
  4  5  2  0
  4  6  1  0
  6  7  1  0
  7  8  2  0
  8  9  1  0
  9 10  2  0
 10 11  1  0
 10 12  1  0
 12 13  2  0
 13  7  1  0
M  END
>  <target>  (265) 
-2.89

$$$$

     RDKit          3D

 22 24  0  0  0  0  0  0  0  0999 V2000
   -0.2922    0.1965    1.9781 O   0  0  0  0  0  0  0  0  0  0  0  0
    0.2279   -0.1071    0.6631 C   0  0  0  0  0  0  0  0  0  0  0  0
    0.4331   -1.6443    0.5485 C   0  0  0  0  0  0  0  0  0  0  0  0
   -0.7919   -2.4012    0.7313 N   0  0  0  0  0  0  0  0  0  0  0  0
   -1.4234   -3.2102   -0.1581 C   0  0  0  0  0  0  0  0  0  0  0  0
   -2.4967   -3.7188    0.4019 N   0  0  0  0  0  0  0  0  0  0  0  0
   -2.4803   -3.1763    1.6547 C   0  0  0  0  0  0  0  0  0  0  0  0
   -1.4562   -2.3536    1.9053 N   0  0  0  0  0  0  0  0  0  0  0  0
   -0.7652    0.3729   -0.4162 C   0  0  0  0  0  0  0  0  0  0  0  0
   -2.0473    0.8468   -0.0779 C   0  0  0  0  0  0  0  0  0  0  0  0
   -2.9443    1.2567   -1.0671 C   0  0  0  0  0  0  0  0  0  0  0  0
   -2.5685    1.1987   -2.4016 C   0  0  0  0  0  0  0  0  0  0  0  0
   -3.4286    1.5936   -3.3492 F   0  0  0  0  0  0  0  0  0  0  0  0
   -1.3114    0.7379   -2.7680 C   0  0  0  0  0  0  0  0  0  0  0  0
   -0.4128    0.3257   -1.7817 C   0  0  0  0  0  0  0  0  0  0  0  0
    1.5230    0.7192    0.5896 C   0  0  0  0  0  0  0  0  0  0  0  0
    1.5033    2.0735    0.9909 C   0  0  0  0  0  0  0  0  0  0  0  0
    2.6479    2.8734    0.9265 C   0  0  0  0  0  0  0  0  0  0  0  0
    3.8430    2.3416    0.4537 C   0  0  0  0  0  0  0  0  0  0  0  0
    3.8879    1.0124    0.0445 C   0  0  0  0  0  0  0  0  0  0  0  0
    2.7409    0.2199    0.1117 C   0  0  0  0  0  0  0  0  0  0  0  0
    2.8450   -1.0448   -0.3179 F   0  0  0  0  0  0  0  0  0  0  0  0
  1  2  1  0
  2  3  1  0
  3  4  1  0
  4  5  1  0
  5  6  2  0
  6  7  1  0
  7  8  2  0
  2  9  1  0
  9 10  2  0
 10 11  1  0
 11 12  2  0
 12 13  1  0
 12 14  1  0
 14 15  2  0
  2 16  1  0
 16 17  2  0
 17 18  1  0
 18 19  2  0
 19 20  1  0
 20 21  2  0
 21 22  1  0
  8  4  1  0
 15  9  1  0
 21 16  1  0
M  END
>  <target>  (266) 
-3.37

$$$$

     RDKit          3D

 34 37  0  0  0  0  0  0  0  0999 V2000
    7.2279    0.1892    0.2545 C   0  0  0  0  0  0  0  0  0  0  0  0
    5.7919   -0.0342    0.6140 C   0  0  0  0  0  0  0  0  0  0  0  0
    5.1664   -1.0613    0.3816 O   0  0  0  0  0  0  0  0  0  0  0  0
    5.2837    1.0663    1.2341 O   0  0  0  0  0  0  0  0  0  0  0  0
    3.9032    0.9552    1.5862 C   0  0  0  0  0  0  0  0  0  0  0  0
    2.9907    0.8424    0.3651 C   0  0  0  0  0  0  0  0  0  0  0  0
    3.0787    1.6619   -0.5543 O   0  0  0  0  0  0  0  0  0  0  0  0
    1.9708   -0.3153    0.3363 C   0  0  0  0  0  0  0  0  0  0  0  0
    2.4564   -1.4458    1.0735 O   0  0  0  0  0  0  0  0  0  0  0  0
    1.6983   -0.7690   -1.1140 C   0  0  0  0  0  0  0  0  0  0  0  0
    0.3488   -1.4930   -1.0411 C   0  0  0  0  0  0  0  0  0  0  0  0
   -0.3056   -1.1097    0.3093 C   0  0  0  0  0  0  0  0  0  0  0  0
   -1.8334   -0.8895    0.1770 C   0  0  0  0  0  0  0  0  0  0  0  0
   -2.5458   -1.1716    1.5184 C   0  0  0  0  0  0  0  0  0  0  0  0
   -4.0616   -1.0263    1.4289 C   0  0  0  0  0  0  0  0  0  0  0  0
   -4.4420    0.3086    0.8415 C   0  0  0  0  0  0  0  0  0  0  0  0
   -5.2900    1.1267    1.4903 C   0  0  0  0  0  0  0  0  0  0  0  0
   -5.6847    2.4419    0.9401 C   0  0  0  0  0  0  0  0  0  0  0  0
   -6.4853    3.1599    1.5255 O   0  0  0  0  0  0  0  0  0  0  0  0
   -5.0768    2.8466   -0.3418 C   0  0  0  0  0  0  0  0  0  0  0  0
   -4.2294    2.0346   -0.9884 C   0  0  0  0  0  0  0  0  0  0  0  0
   -3.7998    0.6560   -0.5049 C   0  0  0  0  0  0  0  0  0  0  0  0
   -4.3615   -0.3097   -1.5837 C   0  0  0  0  0  0  0  0  0  0  0  0
   -2.2255    0.5043   -0.4011 C   0  0  0  0  0  0  0  0  0  0  0  0
   -1.7354    0.5702   -1.6877 F   0  0  0  0  0  0  0  0  0  0  0  0
   -1.4776    1.6186    0.3854 C   0  0  0  0  0  0  0  0  0  0  0  0
   -1.7141    2.9238   -0.1516 O   0  0  0  0  0  0  0  0  0  0  0  0
    0.0452    1.4194    0.3196 C   0  0  0  0  0  0  0  0  0  0  0  0
    0.5470    0.0670    0.8657 C   0  0  0  0  0  0  0  0  0  0  0  0
    0.5348    0.1119    2.4072 C   0  0  0  0  0  0  0  0  0  0  0  0
    2.7487   -1.6480   -1.5550 O   0  0  0  0  0  0  0  0  0  0  0  0
    2.7656   -1.9179   -2.8887 C   0  0  0  0  0  0  0  0  0  0  0  0
    3.9295   -2.8012   -3.2165 C   0  0  0  0  0  0  0  0  0  0  0  0
    1.9505   -1.5120   -3.7040 O   0  0  0  0  0  0  0  0  0  0  0  0
  1  2  1  0
  2  3  2  0
  2  4  1  0
  4  5  1  0
  5  6  1  0
  6  7  2  0
  6  8  1  0
  8  9  1  0
  8 10  1  0
 10 11  1  0
 11 12  1  0
 12 13  1  0
 13 14  1  0
 14 15  1  0
 15 16  1  0
 16 17  2  0
 17 18  1  0
 18 19  2  0
 18 20  1  0
 20 21  2  0
 21 22  1  0
 22 23  1  0
 22 24  1  0
 24 25  1  0
 24 26  1  0
 26 27  1  0
 26 28  1  0
 28 29  1  0
 29 30  1  0
 10 31  1  0
 31 32  1  0
 32 33  1  0
 32 34  2  0
 22 16  1  0
 24 13  1  0
 29  8  1  0
 29 12  1  0
M  END
>  <target>  (267) 
-4.13

$$$$

     RDKit          3D

  5  4  0  0  0  0  0  0  0  0999 V2000
   -1.9718    0.0949    0.1043 C   0  0  0  0  0  0  0  0  0  0  0  0
   -0.5408    0.6075    0.1359 C   0  0  0  0  0  0  0  0  0  0  0  0
    0.4631   -0.5170   -0.1158 C   0  0  0  0  0  0  0  0  0  0  0  0
    1.8887    0.0070   -0.0819 C   0  0  0  0  0  0  0  0  0  0  0  0
    3.1354   -1.4527   -0.4062 Br  0  0  0  0  0  0  0  0  0  0  0  0
  1  2  1  0
  2  3  1  0
  3  4  1  0
  4  5  1  0
M  END
>  <target>  (268) 
-2.37

$$$$

     RDKit          3D

 10 10  0  0  0  0  0  0  0  0999 V2000
    3.0310   -1.3020    0.0426 Br  0  0  0  0  0  0  0  0  0  0  0  0
    1.3041   -0.5120    0.0199 C   0  0  0  0  0  0  0  0  0  0  0  0
    0.2070   -1.3786   -0.0374 C   0  0  0  0  0  0  0  0  0  0  0  0
   -1.0965   -0.8704   -0.0573 C   0  0  0  0  0  0  0  0  0  0  0  0
   -2.5156   -2.1300   -0.1357 Br  0  0  0  0  0  0  0  0  0  0  0  0
   -1.3041    0.5120   -0.0199 C   0  0  0  0  0  0  0  0  0  0  0  0
   -3.0310    1.3020   -0.0426 Br  0  0  0  0  0  0  0  0  0  0  0  0
   -0.2070    1.3786    0.0374 C   0  0  0  0  0  0  0  0  0  0  0  0
    1.0965    0.8704    0.0573 C   0  0  0  0  0  0  0  0  0  0  0  0
    2.5156    2.1300    0.1357 Br  0  0  0  0  0  0  0  0  0  0  0  0
  1  2  1  0
  2  3  2  0
  3  4  1  0
  4  5  1  0
  4  6  2  0
  6  7  1  0
  6  8  1  0
  8  9  2  0
  9 10  1  0
  9  2  1  0
M  END
>  <target>  (269) 
-6.98

$$$$

     RDKit          3D

  7  6  0  0  0  0  0  0  0  0999 V2000
   -0.4464    1.6801    0.8080 C   0  0  0  0  0  0  0  0  0  0  0  0
   -0.5752    0.1572    0.8951 C   0  0  0  0  0  0  0  0  0  0  0  0
   -2.0415   -0.2249    1.1071 C   0  0  0  0  0  0  0  0  0  0  0  0
   -0.0312   -0.5247   -0.3691 C   0  0  0  0  0  0  0  0  0  0  0  0
    1.4845   -0.4805   -0.4872 C   0  0  0  0  0  0  0  0  0  0  0  0
    2.2195   -0.1651    0.4472 O   0  0  0  0  0  0  0  0  0  0  0  0
    2.0578   -0.8909   -1.8189 C   0  0  0  0  0  0  0  0  0  0  0  0
  1  2  1  0
  2  3  1  0
  2  4  1  0
  4  5  1  0
  5  6  2  0
  5  7  1  0
M  END
>  <target>  (270) 
-0.74

$$$$

     RDKit          3D

 14 14  0  0  0  0  0  0  0  0999 V2000
    4.2521    0.8490   -1.8124 C   0  0  0  0  0  0  0  0  0  0  0  0
    4.3433    0.4575   -0.3473 C   0  0  0  0  0  0  0  0  0  0  0  0
    3.1105   -0.8024    0.0857 S   0  0  0  0  0  0  0  0  0  0  0  0
    1.6527    0.1830    0.1672 C   0  0  0  0  0  0  0  0  0  0  0  0
    1.7415    1.4064    0.1743 O   0  0  0  0  0  0  0  0  0  0  0  0
    0.4293   -0.4979    0.2371 N   0  0  0  0  0  0  0  0  0  0  0  0
    0.2837   -1.9518    0.0600 C   0  0  0  0  0  0  0  0  0  0  0  0
    0.4154   -2.7204    1.3675 C   0  0  0  0  0  0  0  0  0  0  0  0
   -0.7911    0.3363    0.2744 C   0  0  0  0  0  0  0  0  0  0  0  0
   -1.8943   -0.1990    1.2028 C   0  0  0  0  0  0  0  0  0  0  0  0
   -3.1139    0.7216    1.2081 C   0  0  0  0  0  0  0  0  0  0  0  0
   -3.6462    0.9543   -0.2028 C   0  0  0  0  0  0  0  0  0  0  0  0
   -2.5607    1.4873   -1.1329 C   0  0  0  0  0  0  0  0  0  0  0  0
   -1.3303    0.5828   -1.1456 C   0  0  0  0  0  0  0  0  0  0  0  0
  1  2  1  0
  2  3  1  0
  3  4  1  0
  4  5  2  0
  4  6  1  0
  6  7  1  0
  7  8  1  0
  6  9  1  0
  9 10  1  0
 10 11  1  0
 11 12  1  0
 12 13  1  0
 13 14  1  0
 14  9  1  0
M  END
>  <target>  (271) 
-3.4

$$$$

     RDKit          3D

  9  9  0  0  0  0  0  0  0  0999 V2000
   -2.7057   -0.3848    0.0913 C   0  0  0  0  0  0  0  0  0  0  0  0
   -1.7851    0.6341   -0.2786 O   0  0  0  0  0  0  0  0  0  0  0  0
   -0.4554    0.3470   -0.1418 C   0  0  0  0  0  0  0  0  0  0  0  0
    0.4061    1.3821   -0.5190 C   0  0  0  0  0  0  0  0  0  0  0  0
    1.7912    1.2248   -0.4306 C   0  0  0  0  0  0  0  0  0  0  0  0
    2.3173    0.0247    0.0381 C   0  0  0  0  0  0  0  0  0  0  0  0
    4.0218   -0.1781    0.1505 Cl  0  0  0  0  0  0  0  0  0  0  0  0
    1.4693   -1.0141    0.4171 C   0  0  0  0  0  0  0  0  0  0  0  0
    0.0818   -0.8534    0.3273 C   0  0  0  0  0  0  0  0  0  0  0  0
  1  2  1  0
  2  3  1  0
  3  4  2  0
  4  5  1  0
  5  6  2  0
  6  7  1  0
  6  8  1  0
  8  9  2  0
  9  3  1  0
M  END
>  <target>  (272) 
-2.78

$$$$

     RDKit          3D

 28 30  0  0  0  0  0  0  0  0999 V2000
   -2.7299   -2.2721   -1.0175 C   0  0  0  0  0  0  0  0  0  0  0  0
   -3.7534   -1.1666   -0.8990 C   0  0  0  0  0  0  0  0  0  0  0  0
   -5.1134   -1.5600   -1.4254 C   0  0  0  0  0  0  0  0  0  0  0  0
   -3.6091   -0.2211    0.2846 C   0  0  0  0  0  0  0  0  0  0  0  0
   -4.7935    0.2803    1.0008 C   0  0  0  0  0  0  0  0  0  0  0  0
   -4.9722    1.4953    1.5485 C   0  0  0  0  0  0  0  0  0  0  0  0
   -3.6842    2.8511    1.4893 Br  0  0  0  0  0  0  0  0  0  0  0  0
   -6.5628    1.9260    2.4407 Br  0  0  0  0  0  0  0  0  0  0  0  0
   -3.3258    0.2773   -1.1195 C   0  0  0  0  0  0  0  0  0  0  0  0
   -1.9501    0.6085   -1.5568 C   0  0  0  0  0  0  0  0  0  0  0  0
   -1.5628    0.3894   -2.6933 O   0  0  0  0  0  0  0  0  0  0  0  0
   -1.2292    1.1857   -0.5684 O   0  0  0  0  0  0  0  0  0  0  0  0
    0.1047    1.5682   -0.9491 C   0  0  0  0  0  0  0  0  0  0  0  0
    0.1086    2.9059   -1.5853 C   0  0  0  0  0  0  0  0  0  0  0  0
    0.0947    3.9605   -2.0746 N   0  0  0  0  0  0  0  0  0  0  0  0
    0.9323    1.5249    0.3267 C   0  0  0  0  0  0  0  0  0  0  0  0
    0.7029    2.4281    1.3802 C   0  0  0  0  0  0  0  0  0  0  0  0
    1.4501    2.3546    2.5567 C   0  0  0  0  0  0  0  0  0  0  0  0
    2.4339    1.3777    2.6990 C   0  0  0  0  0  0  0  0  0  0  0  0
    2.6800    0.4779    1.6629 C   0  0  0  0  0  0  0  0  0  0  0  0
    3.6378   -0.4831    1.9048 O   0  0  0  0  0  0  0  0  0  0  0  0
    4.4043   -0.9016    0.8429 C   0  0  0  0  0  0  0  0  0  0  0  0
    4.4647   -2.2728    0.5941 C   0  0  0  0  0  0  0  0  0  0  0  0
    5.2461   -2.7523   -0.4572 C   0  0  0  0  0  0  0  0  0  0  0  0
    5.9774   -1.8615   -1.2443 C   0  0  0  0  0  0  0  0  0  0  0  0
    5.9371   -0.4921   -0.9757 C   0  0  0  0  0  0  0  0  0  0  0  0
    5.1565   -0.0095    0.0752 C   0  0  0  0  0  0  0  0  0  0  0  0
    1.9198    0.5368    0.4896 C   0  0  0  0  0  0  0  0  0  0  0  0
  1  2  1  0
  2  3  1  0
  2  4  1  0
  4  5  1  0
  5  6  2  3
  6  7  1  0
  6  8  1  0
  4  9  1  0
  9 10  1  0
 10 11  2  0
 10 12  1  0
 12 13  1  0
 13 14  1  0
 14 15  3  0
 13 16  1  0
 16 17  2  0
 17 18  1  0
 18 19  2  0
 19 20  1  0
 20 21  1  0
 21 22  1  0
 22 23  2  0
 23 24  1  0
 24 25  2  0
 25 26  1  0
 26 27  2  0
 20 28  2  0
  9  2  1  0
 28 16  1  0
 27 22  1  0
M  END
>  <target>  (273) 
-8.402000000000001

$$$$

     RDKit          3D

 16 16  0  0  0  0  0  0  0  0999 V2000
    3.4488    0.6008    0.5068 C   0  0  0  0  0  0  0  0  0  0  0  0
    2.2183   -0.2670    0.2690 C   0  0  0  0  0  0  0  0  0  0  0  0
    1.0000    0.5256   -0.2800 C   0  0  0  0  0  0  0  0  0  0  0  0
    1.2818    1.0079   -1.7139 C   0  0  0  0  0  0  0  0  0  0  0  0
   -0.3479   -0.2757   -0.1150 C   0  0  0  0  0  0  0  0  0  0  0  0
   -1.5745    0.4222   -0.7832 C   0  0  0  0  0  0  0  0  0  0  0  0
   -1.8719    1.8169   -0.2962 C   0  0  0  0  0  0  0  0  0  0  0  0
   -2.9959    2.1615    0.3448 C   0  0  0  0  0  0  0  0  0  0  0  0
   -0.6845   -0.4220    1.3739 C   0  0  0  0  0  0  0  0  0  0  0  0
   -0.2215    0.2872    2.2642 O   0  0  0  0  0  0  0  0  0  0  0  0
   -1.5806   -1.4054    1.6896 N   0  0  0  0  0  0  0  0  0  0  0  0
   -1.6262   -2.5894    1.0259 C   0  0  0  0  0  0  0  0  0  0  0  0
   -2.0124   -3.6168    1.5730 O   0  0  0  0  0  0  0  0  0  0  0  0
   -1.1392   -2.6020   -0.2436 N   0  0  0  0  0  0  0  0  0  0  0  0
   -0.2786   -1.6648   -0.7500 C   0  0  0  0  0  0  0  0  0  0  0  0
    0.4402   -1.9605   -1.7006 O   0  0  0  0  0  0  0  0  0  0  0  0
  1  2  1  0
  2  3  1  0
  3  4  1  0
  3  5  1  0
  5  6  1  0
  6  7  1  0
  7  8  2  0
  5  9  1  0
  9 10  2  0
  9 11  1  0
 11 12  1  0
 12 13  2  0
 12 14  1  0
 14 15  1  0
 15 16  2  0
 15  5  1  0
M  END
>  <target>  (274) 
-2.016

$$$$

     RDKit          3D

 17 17  0  0  0  0  0  0  0  0999 V2000
   -3.4913    2.0616   -1.2269 C   0  0  0  0  0  0  0  0  0  0  0  0
   -3.4153    1.1796   -0.1243 O   0  0  0  0  0  0  0  0  0  0  0  0
   -2.3993   -0.0809   -0.2164 P   0  0  0  0  0  0  0  0  0  0  0  0
   -2.7603   -1.3556   -1.6349 S   0  0  0  0  0  0  0  0  0  0  0  0
   -2.4728   -0.6390    1.3031 O   0  0  0  0  0  0  0  0  0  0  0  0
   -3.7002   -1.1667    1.7655 C   0  0  0  0  0  0  0  0  0  0  0  0
   -0.9688    0.6709   -0.2346 O   0  0  0  0  0  0  0  0  0  0  0  0
    0.2584    0.0857   -0.0996 C   0  0  0  0  0  0  0  0  0  0  0  0
    0.4649   -1.2434    0.2594 C   0  0  0  0  0  0  0  0  0  0  0  0
    1.7663   -1.7394    0.3646 C   0  0  0  0  0  0  0  0  0  0  0  0
    2.8578   -0.8943    0.1140 C   0  0  0  0  0  0  0  0  0  0  0  0
    4.1935   -1.4742    0.2237 N   0  0  0  0  0  0  0  0  0  0  0  0
    4.4282   -2.1625    1.2266 O   0  0  0  0  0  0  0  0  0  0  0  0
    4.9924   -1.2563   -0.6968 O   0  0  0  0  0  0  0  0  0  0  0  0
    2.6739    0.4582   -0.2230 C   0  0  0  0  0  0  0  0  0  0  0  0
    3.8089    1.4077   -0.4853 C   0  0  0  0  0  0  0  0  0  0  0  0
    1.3537    0.9266   -0.3352 C   0  0  0  0  0  0  0  0  0  0  0  0
  1  2  1  0
  2  3  1  0
  3  4  2  0
  3  5  1  0
  5  6  1  0
  3  7  1  0
  7  8  1  0
  8  9  2  0
  9 10  1  0
 10 11  2  0
 11 12  1  0
 12 13  1  0
 12 14  2  0
 11 15  1  0
 15 16  1  0
 15 17  2  0
 17  8  1  0
M  CHG  2  12   1  13  -1
M  END
>  <target>  (275) 
-4.04

$$$$

     RDKit          3D

 11 12  0  0  0  0  0  0  0  0999 V2000
    1.4735    3.4314    0.3026 I   0  0  0  0  0  0  0  0  0  0  0  0
    1.2568    1.3346    0.1721 C   0  0  0  0  0  0  0  0  0  0  0  0
    2.4459    0.5973    0.2488 C   0  0  0  0  0  0  0  0  0  0  0  0
    2.4110   -0.7897    0.1730 C   0  0  0  0  0  0  0  0  0  0  0  0
    1.1909   -1.4432    0.0207 C   0  0  0  0  0  0  0  0  0  0  0  0
   -0.0126   -0.7242   -0.0583 C   0  0  0  0  0  0  0  0  0  0  0  0
   -1.2263   -1.4154   -0.2119 C   0  0  0  0  0  0  0  0  0  0  0  0
   -2.4382   -0.7333   -0.2936 C   0  0  0  0  0  0  0  0  0  0  0  0
   -2.4527    0.6519   -0.2227 C   0  0  0  0  0  0  0  0  0  0  0  0
   -1.2544    1.3546   -0.0700 C   0  0  0  0  0  0  0  0  0  0  0  0
   -0.0027    0.6928    0.0167 C   0  0  0  0  0  0  0  0  0  0  0  0
  1  2  1  0
  2  3  2  0
  3  4  1  0
  4  5  2  0
  5  6  1  0
  6  7  2  0
  7  8  1  0
  8  9  2  0
  9 10  1  0
 10 11  2  0
 11  2  1  0
 11  6  1  0
M  END
>  <target>  (276) 
-4.55

$$$$

     RDKit          3D

 12 11  0  0  0  0  0  0  0  0999 V2000
    2.9924   -0.1047   -1.9873 O   0  0  0  0  0  0  0  0  0  0  0  0
    2.2236   -0.6647   -0.9231 C   0  0  0  0  0  0  0  0  0  0  0  0
    1.5077    0.4609   -0.1760 C   0  0  0  0  0  0  0  0  0  0  0  0
    2.5196    1.3774    0.2937 O   0  0  0  0  0  0  0  0  0  0  0  0
    0.6906   -0.0277    1.0284 C   0  0  0  0  0  0  0  0  0  0  0  0
    0.1574    1.1113    1.7349 O   0  0  0  0  0  0  0  0  0  0  0  0
   -0.4350   -1.0340    0.7235 C   0  0  0  0  0  0  0  0  0  0  0  0
   -1.1885   -1.2822    1.9298 O   0  0  0  0  0  0  0  0  0  0  0  0
   -1.4378   -0.6885   -0.3991 C   0  0  0  0  0  0  0  0  0  0  0  0
   -2.2959   -1.8291   -0.5778 O   0  0  0  0  0  0  0  0  0  0  0  0
   -2.3394    0.5249   -0.1433 C   0  0  0  0  0  0  0  0  0  0  0  0
   -1.5913    1.7360   -0.0773 O   0  0  0  0  0  0  0  0  0  0  0  0
  1  2  1  0
  2  3  1  0
  3  4  1  0
  3  5  1  0
  5  6  1  0
  5  7  1  0
  7  8  1  0
  7  9  1  0
  9 10  1  0
  9 11  1  0
 11 12  1  0
M  END
>  <target>  (277) 
1.09

$$$$

     RDKit          3D

  3  2  0  0  0  0  0  0  0  0999 V2000
   -0.8659    0.2976    0.2063 C   0  0  0  0  0  0  0  0  0  0  0  0
    0.2444   -0.5776   -0.3441 C   0  0  0  0  0  0  0  0  0  0  0  0
    1.7951   -0.2856    0.5509 S   0  0  0  0  0  0  0  0  0  0  0  0
  1  2  1  0
  2  3  1  0
M  END
>  <target>  (278) 
-0.6

$$$$

     RDKit          3D

  5  4  0  0  0  0  0  0  0  0999 V2000
   -1.7170    0.9654    0.9501 Cl  0  0  0  0  0  0  0  0  0  0  0  0
   -0.7660   -0.0263   -0.1915 C   0  0  0  0  0  0  0  0  0  0  0  0
    0.7071   -0.0946    0.1965 C   0  0  0  0  0  0  0  0  0  0  0  0
    1.5505   -1.2797   -0.8430 Cl  0  0  0  0  0  0  0  0  0  0  0  0
    1.5151    1.4883    0.0283 Cl  0  0  0  0  0  0  0  0  0  0  0  0
  1  2  1  0
  2  3  1  0
  3  4  1  0
  3  5  1  0
M  END
>  <target>  (279) 
-1.48

$$$$

     RDKit          3D

 18 19  0  0  0  0  0  0  0  0999 V2000
    4.6056   -0.3599    0.3912 C   0  0  0  0  0  0  0  0  0  0  0  0
    3.2375   -0.4215   -0.0879 N   0  0  0  0  0  0  0  0  0  0  0  0
    2.8585   -1.6071   -0.8368 C   0  0  0  0  0  0  0  0  0  0  0  0
    2.3208    0.5307    0.3489 C   0  0  0  0  0  0  0  0  0  0  0  0
    2.6470    1.4999    1.0277 O   0  0  0  0  0  0  0  0  0  0  0  0
    1.0531    0.2439   -0.0404 O   0  0  0  0  0  0  0  0  0  0  0  0
    0.0565    1.1009    0.1444 C   0  0  0  0  0  0  0  0  0  0  0  0
    0.0314    2.4654    0.3599 C   0  0  0  0  0  0  0  0  0  0  0  0
   -1.3226    2.8344    0.3529 C   0  0  0  0  0  0  0  0  0  0  0  0
   -1.9029    4.1876    0.5213 C   0  0  0  0  0  0  0  0  0  0  0  0
   -2.1165    1.7855    0.1409 N   0  0  0  0  0  0  0  0  0  0  0  0
   -1.2823    0.7071    0.0683 N   0  0  0  0  0  0  0  0  0  0  0  0
   -1.8497   -0.6007   -0.0657 C   0  0  0  0  0  0  0  0  0  0  0  0
   -3.2278   -0.7215   -0.3193 C   0  0  0  0  0  0  0  0  0  0  0  0
   -3.8207   -1.9790   -0.4581 C   0  0  0  0  0  0  0  0  0  0  0  0
   -3.0485   -3.1302   -0.3365 C   0  0  0  0  0  0  0  0  0  0  0  0
   -1.6855   -3.0248   -0.0694 C   0  0  0  0  0  0  0  0  0  0  0  0
   -1.0865   -1.7674    0.0690 C   0  0  0  0  0  0  0  0  0  0  0  0
  1  2  1  0
  2  3  1  0
  2  4  1  0
  4  5  2  0
  4  6  1  0
  6  7  1  0
  7  8  2  0
  8  9  1  0
  9 10  1  0
  9 11  2  0
 11 12  1  0
 12 13  1  0
 13 14  2  0
 14 15  1  0
 15 16  2  0
 16 17  1  0
 17 18  2  0
 12  7  1  0
 18 13  1  0
M  END
>  <target>  (280) 
-2.09

$$$$

     RDKit          3D

 10 10  0  0  0  0  0  0  0  0999 V2000
   -2.3033   -1.5362   -0.2725 N   0  0  0  0  0  0  0  0  0  0  0  0
   -1.7661   -0.3057   -0.5292 C   0  0  0  0  0  0  0  0  0  0  0  0
   -2.4520    0.5898   -1.0132 O   0  0  0  0  0  0  0  0  0  0  0  0
   -0.3467   -0.0574   -0.1629 C   0  0  0  0  0  0  0  0  0  0  0  0
    0.5455   -1.1120    0.0814 C   0  0  0  0  0  0  0  0  0  0  0  0
    1.8720   -0.8448    0.4346 C   0  0  0  0  0  0  0  0  0  0  0  0
    2.3177    0.4722    0.5402 C   0  0  0  0  0  0  0  0  0  0  0  0
    1.4433    1.5267    0.2822 C   0  0  0  0  0  0  0  0  0  0  0  0
    0.1222    1.2631   -0.0753 C   0  0  0  0  0  0  0  0  0  0  0  0
   -0.6635    2.3574   -0.3277 O   0  0  0  0  0  0  0  0  0  0  0  0
  1  2  1  0
  2  3  2  0
  2  4  1  0
  4  5  2  0
  5  6  1  0
  6  7  2  0
  7  8  1  0
  8  9  2  0
  9 10  1  0
  9  4  1  0
M  END
>  <target>  (281) 
-1.82

$$$$

     RDKit          3D

 10 10  0  0  0  0  0  0  0  0999 V2000
    2.0536   -0.6428    0.1809 C   0  0  0  0  0  0  0  0  0  0  0  0
    0.5775   -0.4199    0.0069 C   0  0  0  0  0  0  0  0  0  0  0  0
   -0.2486   -1.5197   -0.2750 C   0  0  0  0  0  0  0  0  0  0  0  0
   -1.6270   -1.3584   -0.4497 C   0  0  0  0  0  0  0  0  0  0  0  0
   -2.2099   -0.0967   -0.3422 C   0  0  0  0  0  0  0  0  0  0  0  0
   -1.4163    1.0104   -0.0505 C   0  0  0  0  0  0  0  0  0  0  0  0
   -0.0348    0.8418    0.1312 C   0  0  0  0  0  0  0  0  0  0  0  0
    0.7458    2.0321    0.4539 N   0  0  0  0  0  0  0  0  0  0  0  0
    1.5332    1.9630    1.4073 O   0  0  0  0  0  0  0  0  0  0  0  0
    0.5497    3.0406   -0.2389 O   0  0  0  0  0  0  0  0  0  0  0  0
  1  2  1  0
  2  3  2  0
  3  4  1  0
  4  5  2  0
  5  6  1  0
  6  7  2  0
  7  8  1  0
  8  9  1  0
  8 10  2  0
  7  2  1  0
M  CHG  2   8   1   9  -1
M  END
>  <target>  (282) 
-2.33

$$$$

     RDKit          3D

 15 15  0  0  0  0  0  0  0  0999 V2000
    0.5800    0.1428    2.3698 O   0  0  0  0  0  0  0  0  0  0  0  0
    0.4684    0.7245    1.2921 C   0  0  0  0  0  0  0  0  0  0  0  0
    0.7789    2.0494    1.2089 N   0  0  0  0  0  0  0  0  0  0  0  0
    0.2040    2.9066    0.3288 C   0  0  0  0  0  0  0  0  0  0  0  0
    0.2894    4.1220    0.4662 O   0  0  0  0  0  0  0  0  0  0  0  0
   -0.4697    2.3542   -0.7108 N   0  0  0  0  0  0  0  0  0  0  0  0
   -0.3438    1.0511   -1.0913 C   0  0  0  0  0  0  0  0  0  0  0  0
   -0.5178    0.7446   -2.2695 O   0  0  0  0  0  0  0  0  0  0  0  0
    0.0027    0.0378    0.0043 C   0  0  0  0  0  0  0  0  0  0  0  0
   -1.2971   -0.7854    0.3546 C   0  0  0  0  0  0  0  0  0  0  0  0
   -1.8046   -1.6951   -0.7744 C   0  0  0  0  0  0  0  0  0  0  0  0
   -2.4651    0.1033    0.8211 C   0  0  0  0  0  0  0  0  0  0  0  0
    1.1817   -0.8582   -0.5405 C   0  0  0  0  0  0  0  0  0  0  0  0
    2.4683   -0.0578   -0.8160 C   0  0  0  0  0  0  0  0  0  0  0  0
    1.5412   -2.0571    0.3500 C   0  0  0  0  0  0  0  0  0  0  0  0
  1  2  2  0
  2  3  1  0
  3  4  1  0
  4  5  2  0
  4  6  1  0
  6  7  1  0
  7  8  2  0
  7  9  1  0
  9 10  1  0
 10 11  1  0
 10 12  1  0
  9 13  1  0
 13 14  1  0
 13 15  1  0
  9  2  1  0
M  END
>  <target>  (283) 
-2.766

$$$$

     RDKit          3D

  9  9  0  0  0  0  0  0  0  0999 V2000
    2.4918   -0.3496    0.4953 C   0  0  0  0  0  0  0  0  0  0  0  0
    1.6011   -0.0660   -0.7055 C   0  0  0  0  0  0  0  0  0  0  0  0
    0.1387   -0.2836   -0.3886 C   0  0  0  0  0  0  0  0  0  0  0  0
   -0.3899   -1.5792   -0.5299 C   0  0  0  0  0  0  0  0  0  0  0  0
   -1.7281   -1.8440   -0.2423 C   0  0  0  0  0  0  0  0  0  0  0  0
   -2.5584   -0.8179    0.1935 C   0  0  0  0  0  0  0  0  0  0  0  0
   -2.0493    0.4715    0.3451 C   0  0  0  0  0  0  0  0  0  0  0  0
   -0.7016    0.7540    0.0659 C   0  0  0  0  0  0  0  0  0  0  0  0
   -0.2054    2.1637    0.2371 C   0  0  0  0  0  0  0  0  0  0  0  0
  1  2  1  0
  2  3  1  0
  3  4  2  0
  4  5  1  0
  5  6  2  0
  6  7  1  0
  7  8  2  0
  8  9  1  0
  8  3  1  0
M  END
>  <target>  (284) 
-3.21

$$$$

     RDKit          3D

  8  7  0  0  0  0  0  0  0  0999 V2000
    3.8108    0.2036   -0.0972 C   0  0  0  0  0  0  0  0  0  0  0  0
    2.5129   -0.5824   -0.1923 C   0  0  0  0  0  0  0  0  0  0  0  0
    1.3005    0.3008    0.1017 C   0  0  0  0  0  0  0  0  0  0  0  0
   -0.0030   -0.4936    0.0050 C   0  0  0  0  0  0  0  0  0  0  0  0
   -1.2163    0.3902    0.2993 C   0  0  0  0  0  0  0  0  0  0  0  0
   -2.5202   -0.4040    0.2026 C   0  0  0  0  0  0  0  0  0  0  0  0
   -3.7241    0.4813    0.4966 C   0  0  0  0  0  0  0  0  0  0  0  0
   -5.2293   -0.4590    0.3795 Cl  0  0  0  0  0  0  0  0  0  0  0  0
  1  2  1  0
  2  3  1  0
  3  4  1  0
  4  5  1  0
  5  6  1  0
  6  7  1  0
  7  8  1  0
M  END
>  <target>  (285) 
-4.0

$$$$

     RDKit          3D

 13 13  0  0  0  0  0  0  0  0999 V2000
    0.6125   -0.9184    2.1510 O   0  0  0  0  0  0  0  0  0  0  0  0
    0.9123   -0.4727    1.0460 C   0  0  0  0  0  0  0  0  0  0  0  0
    2.2281   -0.3430    0.6943 N   0  0  0  0  0  0  0  0  0  0  0  0
    2.6780   -0.2981   -0.5880 C   0  0  0  0  0  0  0  0  0  0  0  0
    3.8329   -0.5983   -0.8717 O   0  0  0  0  0  0  0  0  0  0  0  0
    1.7684    0.0086   -1.5502 N   0  0  0  0  0  0  0  0  0  0  0  0
    0.4209   -0.1542   -1.3865 C   0  0  0  0  0  0  0  0  0  0  0  0
   -0.2929   -0.3945   -2.3569 O   0  0  0  0  0  0  0  0  0  0  0  0
   -0.1031    0.0397    0.0306 C   0  0  0  0  0  0  0  0  0  0  0  0
   -1.4713   -0.6594    0.2232 C   0  0  0  0  0  0  0  0  0  0  0  0
   -1.4380   -2.1805    0.0761 C   0  0  0  0  0  0  0  0  0  0  0  0
   -0.2157    1.5715    0.2988 C   0  0  0  0  0  0  0  0  0  0  0  0
   -1.2606    2.3107   -0.5302 C   0  0  0  0  0  0  0  0  0  0  0  0
  1  2  2  0
  2  3  1  0
  3  4  1  0
  4  5  2  0
  4  6  1  0
  6  7  1  0
  7  8  2  0
  7  9  1  0
  9 10  1  0
 10 11  1  0
  9 12  1  0
 12 13  1  0
  9  2  1  0
M  END
>  <target>  (286) 
-2.4

$$$$

     RDKit          3D

 14 15  0  0  0  0  0  0  0  0999 V2000
    0.3517   -1.0017   -1.6315 C   0  0  0  0  0  0  0  0  0  0  0  0
   -0.8807   -0.0932   -1.7333 C   0  0  0  0  0  0  0  0  0  0  0  0
   -1.6645    0.0049   -0.4456 C   0  0  0  0  0  0  0  0  0  0  0  0
   -1.4563    1.0772    0.4323 C   0  0  0  0  0  0  0  0  0  0  0  0
   -2.1564    1.1524    1.6368 C   0  0  0  0  0  0  0  0  0  0  0  0
   -3.0722    0.1581    1.9747 C   0  0  0  0  0  0  0  0  0  0  0  0
   -3.2873   -0.9128    1.1091 C   0  0  0  0  0  0  0  0  0  0  0  0
   -2.5858   -0.9912   -0.0950 C   0  0  0  0  0  0  0  0  0  0  0  0
    1.4682   -0.4111   -0.8027 C   0  0  0  0  0  0  0  0  0  0  0  0
    1.6103   -0.7583    0.5475 C   0  0  0  0  0  0  0  0  0  0  0  0
    2.6216   -0.1894    1.3223 C   0  0  0  0  0  0  0  0  0  0  0  0
    3.5014    0.7301    0.7550 C   0  0  0  0  0  0  0  0  0  0  0  0
    3.3695    1.0827   -0.5869 C   0  0  0  0  0  0  0  0  0  0  0  0
    2.3566    0.5167   -1.3628 C   0  0  0  0  0  0  0  0  0  0  0  0
  1  2  1  0
  2  3  1  0
  3  4  2  0
  4  5  1  0
  5  6  2  0
  6  7  1  0
  7  8  2  0
  1  9  1  0
  9 10  2  0
 10 11  1  0
 11 12  2  0
 12 13  1  0
 13 14  2  0
  8  3  1  0
 14  9  1  0
M  END
>  <target>  (287) 
-4.62

$$$$

     RDKit          3D

  6  5  0  0  0  0  0  0  0  0999 V2000
   -1.7695    1.1858    0.5526 Cl  0  0  0  0  0  0  0  0  0  0  0  0
   -0.7273   -0.0416   -0.2434 C   0  0  0  0  0  0  0  0  0  0  0  0
   -1.4557   -1.6473    0.0987 Cl  0  0  0  0  0  0  0  0  0  0  0  0
    0.7273    0.0416    0.2434 C   0  0  0  0  0  0  0  0  0  0  0  0
    1.4557    1.6473   -0.0987 Cl  0  0  0  0  0  0  0  0  0  0  0  0
    1.7695   -1.1858   -0.5526 Cl  0  0  0  0  0  0  0  0  0  0  0  0
  1  2  1  0
  2  3  1  0
  2  4  1  0
  4  5  1  0
  4  6  1  0
M  END
>  <target>  (288) 
-1.74

$$$$

     RDKit          3D

 21 23  0  0  0  0  0  0  0  0999 V2000
   -1.8022   -2.2413   -2.0450 C   0  0  0  0  0  0  0  0  0  0  0  0
   -0.7195   -2.0291   -0.9876 C   0  0  0  0  0  0  0  0  0  0  0  0
   -0.7165   -0.6416   -0.4843 N   0  0  0  0  0  0  0  0  0  0  0  0
    0.5384   -0.0696   -0.1539 C   0  0  0  0  0  0  0  0  0  0  0  0
    1.6272   -0.8823    0.2364 C   0  0  0  0  0  0  0  0  0  0  0  0
    2.8946   -0.3526    0.4708 C   0  0  0  0  0  0  0  0  0  0  0  0
    4.0069   -1.0538    0.8462 O   0  0  0  0  0  0  0  0  0  0  0  0
    3.8439   -2.4456    1.0879 C   0  0  0  0  0  0  0  0  0  0  0  0
    3.0958    1.0137    0.3106 C   0  0  0  0  0  0  0  0  0  0  0  0
    2.0391    1.8657   -0.0417 C   0  0  0  0  0  0  0  0  0  0  0  0
    2.3289    3.3386   -0.1695 C   0  0  0  0  0  0  0  0  0  0  0  0
    0.7458    1.3254   -0.2383 C   0  0  0  0  0  0  0  0  0  0  0  0
   -0.2840    2.2221   -0.5768 N   0  0  0  0  0  0  0  0  0  0  0  0
   -1.6391    2.1428   -0.3959 C   0  0  0  0  0  0  0  0  0  0  0  0
   -2.3301    3.0984   -0.7596 O   0  0  0  0  0  0  0  0  0  0  0  0
   -2.2895    1.0357    0.3256 C   0  0  0  0  0  0  0  0  0  0  0  0
   -3.4528    1.3385    1.0534 C   0  0  0  0  0  0  0  0  0  0  0  0
   -4.1546    0.3295    1.6971 C   0  0  0  0  0  0  0  0  0  0  0  0
   -3.6770   -0.9571    1.5745 C   0  0  0  0  0  0  0  0  0  0  0  0
   -2.5713   -1.2801    0.8690 N   0  0  0  0  0  0  0  0  0  0  0  0
   -1.8693   -0.2882    0.2472 C   0  0  0  0  0  0  0  0  0  0  0  0
  1  2  1  0
  2  3  1  0
  3  4  1  0
  4  5  2  0
  5  6  1  0
  6  7  1  0
  7  8  1  0
  6  9  2  0
  9 10  1  0
 10 11  1  0
 10 12  2  0
 12 13  1  0
 13 14  1  0
 14 15  2  0
 14 16  1  0
 16 17  2  0
 17 18  1  0
 18 19  2  0
 19 20  1  0
 20 21  2  0
 12  4  1  0
 21  3  1  0
 21 16  1  0
M  END
>  <target>  (289) 
-5.153

$$$$

     RDKit          3D

 15 17  0  0  0  0  0  0  0  0999 V2000
    4.4492   -0.2652    0.1032 C   0  0  0  0  0  0  0  0  0  0  0  0
    2.9653   -0.0956   -0.0250 C   0  0  0  0  0  0  0  0  0  0  0  0
    2.4309    0.9560   -0.7633 C   0  0  0  0  0  0  0  0  0  0  0  0
    1.0446    1.1251   -0.8516 C   0  0  0  0  0  0  0  0  0  0  0  0
    0.1321    0.2594   -0.1992 C   0  0  0  0  0  0  0  0  0  0  0  0
    0.6948   -0.7967    0.5608 C   0  0  0  0  0  0  0  0  0  0  0  0
   -0.1404   -1.6890    1.2383 C   0  0  0  0  0  0  0  0  0  0  0  0
   -1.5249   -1.5586    1.1777 C   0  0  0  0  0  0  0  0  0  0  0  0
   -2.1158   -0.5316    0.4377 C   0  0  0  0  0  0  0  0  0  0  0  0
   -3.5169   -0.4275    0.3963 C   0  0  0  0  0  0  0  0  0  0  0  0
   -4.1417    0.5825   -0.3301 C   0  0  0  0  0  0  0  0  0  0  0  0
   -3.3706    1.5016   -1.0247 C   0  0  0  0  0  0  0  0  0  0  0  0
   -1.9758    1.4084   -0.9910 C   0  0  0  0  0  0  0  0  0  0  0  0
   -1.3015    0.3949   -0.2632 C   0  0  0  0  0  0  0  0  0  0  0  0
    2.0901   -0.9571    0.6425 C   0  0  0  0  0  0  0  0  0  0  0  0
  1  2  1  0
  2  3  2  0
  3  4  1  0
  4  5  2  0
  5  6  1  0
  6  7  1  0
  7  8  2  0
  8  9  1  0
  9 10  2  0
 10 11  1  0
 11 12  2  0
 12 13  1  0
 13 14  2  0
  6 15  2  0
 15  2  1  0
 14  5  1  0
 14  9  1  0
M  END
>  <target>  (290) 
-5.84

$$$$

     RDKit          3D

 20 20  0  0  0  0  0  0  0  0999 V2000
   -4.7861    2.4540   -1.5810 C   0  0  0  0  0  0  0  0  0  0  0  0
   -4.8955    0.9918   -1.1795 C   0  0  0  0  0  0  0  0  0  0  0  0
   -3.5355    0.3002   -1.2113 C   0  0  0  0  0  0  0  0  0  0  0  0
   -3.6428   -1.1679   -0.8094 C   0  0  0  0  0  0  0  0  0  0  0  0
   -2.3567   -1.7989   -0.9047 O   0  0  0  0  0  0  0  0  0  0  0  0
   -1.5659   -1.6665    0.1870 C   0  0  0  0  0  0  0  0  0  0  0  0
   -1.8400   -1.1274    1.2448 O   0  0  0  0  0  0  0  0  0  0  0  0
   -0.2660   -2.3004   -0.0911 C   0  0  0  0  0  0  0  0  0  0  0  0
   -0.2287   -3.6368   -0.5148 C   0  0  0  0  0  0  0  0  0  0  0  0
    0.9992   -4.2752   -0.6999 C   0  0  0  0  0  0  0  0  0  0  0  0
    2.1892   -3.5875   -0.4584 C   0  0  0  0  0  0  0  0  0  0  0  0
    2.1565   -2.2557   -0.0394 C   0  0  0  0  0  0  0  0  0  0  0  0
    0.9255   -1.6091    0.1455 C   0  0  0  0  0  0  0  0  0  0  0  0
    0.9032   -0.1782    0.4982 C   0  0  0  0  0  0  0  0  0  0  0  0
    0.2619    0.6574   -0.1144 O   0  0  0  0  0  0  0  0  0  0  0  0
    1.7095    0.0206    1.5683 O   0  0  0  0  0  0  0  0  0  0  0  0
    1.7588    1.3687    2.0577 C   0  0  0  0  0  0  0  0  0  0  0  0
    2.8024    2.1909    1.3040 C   0  0  0  0  0  0  0  0  0  0  0  0
    4.2100    1.6068    1.4426 C   0  0  0  0  0  0  0  0  0  0  0  0
    5.2393    2.4610    0.7193 C   0  0  0  0  0  0  0  0  0  0  0  0
  1  2  1  0
  2  3  1  0
  3  4  1  0
  4  5  1  0
  5  6  1  0
  6  7  2  0
  6  8  1  0
  8  9  2  0
  9 10  1  0
 10 11  2  0
 11 12  1  0
 12 13  2  0
 13 14  1  0
 14 15  2  0
 14 16  1  0
 16 17  1  0
 17 18  1  0
 18 19  1  0
 19 20  1  0
 13  8  1  0
M  END
>  <target>  (291) 
-4.4

$$$$

     RDKit          3D

 13 13  0  0  0  0  0  0  0  0999 V2000
    2.5654   -0.1274    0.1980 C   0  0  0  0  0  0  0  0  0  0  0  0
    1.6293   -0.4933   -0.8230 O   0  0  0  0  0  0  0  0  0  0  0  0
    0.3559   -0.1147   -0.4662 C   0  0  0  0  0  0  0  0  0  0  0  0
   -0.4521   -1.0729    0.1507 C   0  0  0  0  0  0  0  0  0  0  0  0
    0.0578   -2.3285    0.3661 O   0  0  0  0  0  0  0  0  0  0  0  0
   -1.7600   -0.7633    0.5353 C   0  0  0  0  0  0  0  0  0  0  0  0
   -2.7118   -1.9807    1.3247 Cl  0  0  0  0  0  0  0  0  0  0  0  0
   -2.2738    0.5178    0.2687 C   0  0  0  0  0  0  0  0  0  0  0  0
   -3.8996    0.9168    0.7490 Cl  0  0  0  0  0  0  0  0  0  0  0  0
   -1.4740    1.4739   -0.3943 C   0  0  0  0  0  0  0  0  0  0  0  0
   -2.1118    3.0560   -0.7474 Cl  0  0  0  0  0  0  0  0  0  0  0  0
   -0.1577    1.1512   -0.7722 C   0  0  0  0  0  0  0  0  0  0  0  0
    0.8423    2.2819   -1.6303 Cl  0  0  0  0  0  0  0  0  0  0  0  0
  1  2  1  0
  2  3  1  0
  3  4  2  0
  4  5  1  0
  4  6  1  0
  6  7  1  0
  6  8  2  0
  8  9  1  0
  8 10  1  0
 10 11  1  0
 10 12  2  0
 12 13  1  0
 12  3  1  0
M  END
>  <target>  (292) 
-4.02

$$$$

     RDKit          3D

 18 17  0  0  0  0  0  0  0  0999 V2000
   -3.7611   -2.3057   -0.4583 C   0  0  0  0  0  0  0  0  0  0  0  0
   -2.8666   -1.4112    0.3860 C   0  0  0  0  0  0  0  0  0  0  0  0
   -2.3922   -0.2512   -0.3686 N   0  0  0  0  0  0  0  0  0  0  0  0
   -3.2158    0.9612   -0.3131 C   0  0  0  0  0  0  0  0  0  0  0  0
   -2.9022    1.8067    0.9116 C   0  0  0  0  0  0  0  0  0  0  0  0
   -1.2249   -0.3974   -1.1113 C   0  0  0  0  0  0  0  0  0  0  0  0
   -0.5637   -1.4354   -1.1365 O   0  0  0  0  0  0  0  0  0  0  0  0
   -0.7370    0.7845   -1.8748 C   0  0  0  0  0  0  0  0  0  0  0  0
    0.2266    1.5874   -1.3999 C   0  0  0  0  0  0  0  0  0  0  0  0
    0.9019    1.4528   -0.0744 C   0  0  0  0  0  0  0  0  0  0  0  0
    2.2586    1.1479   -0.3208 O   0  0  0  0  0  0  0  0  0  0  0  0
    3.0899    0.6098    0.9475 P   0  0  0  0  0  0  0  0  0  0  0  0
    2.9799    1.4732    2.1651 O   0  0  0  0  0  0  0  0  0  0  0  0
    4.5830    0.4374    0.3697 O   0  0  0  0  0  0  0  0  0  0  0  0
    5.5866    0.1177    1.3113 C   0  0  0  0  0  0  0  0  0  0  0  0
    2.5710   -0.9009    1.1495 O   0  0  0  0  0  0  0  0  0  0  0  0
    2.6397   -1.7945    0.0557 C   0  0  0  0  0  0  0  0  0  0  0  0
   -1.3853    0.9967   -3.4586 Cl  0  0  0  0  0  0  0  0  0  0  0  0
  1  2  1  0
  2  3  1  0
  3  4  1  0
  4  5  1  0
  3  6  1  0
  6  7  2  0
  6  8  1  0
  8  9  2  3
  9 10  1  0
 10 11  1  0
 11 12  1  0
 12 13  2  0
 12 14  1  0
 14 15  1  0
 12 16  1  0
 16 17  1  0
  8 18  1  0
M  END
>  <target>  (293) 
0.523

$$$$

     RDKit          3D

 20 23  0  0  0  0  0  0  0  0999 V2000
   -2.6903   -1.2957   -1.4709 C   0  0  0  0  0  0  0  0  0  0  0  0
   -2.4637   -0.0435   -0.6222 C   0  0  0  0  0  0  0  0  0  0  0  0
   -1.6715    1.0296   -1.3906 C   0  0  0  0  0  0  0  0  0  0  0  0
   -0.1677    0.7453   -1.4371 C   0  0  0  0  0  0  0  0  0  0  0  0
    0.4262    0.5877   -0.0230 C   0  0  0  0  0  0  0  0  0  0  0  0
   -0.3270   -0.5213    0.6938 C   0  0  0  0  0  0  0  0  0  0  0  0
    0.2929   -1.6027    1.1978 C   0  0  0  0  0  0  0  0  0  0  0  0
    1.7693   -1.8374    1.1272 C   0  0  0  0  0  0  0  0  0  0  0  0
    2.5619   -0.7341    0.4731 C   0  0  0  0  0  0  0  0  0  0  0  0
    3.9623   -0.8580    0.4157 C   0  0  0  0  0  0  0  0  0  0  0  0
    4.7306    0.1505   -0.1554 C   0  0  0  0  0  0  0  0  0  0  0  0
    6.0891    0.0594   -0.2233 O   0  0  0  0  0  0  0  0  0  0  0  0
    4.1322    1.2900   -0.6686 C   0  0  0  0  0  0  0  0  0  0  0  0
    2.7444    1.4208   -0.6193 C   0  0  0  0  0  0  0  0  0  0  0  0
    1.9388    0.4077   -0.0652 C   0  0  0  0  0  0  0  0  0  0  0  0
   -1.8325   -0.3912    0.7470 C   0  0  0  0  0  0  0  0  0  0  0  0
   -2.3392    0.7040    1.6925 C   0  0  0  0  0  0  0  0  0  0  0  0
   -3.8046    0.8685    1.3084 C   0  0  0  0  0  0  0  0  0  0  0  0
   -3.7890    0.5548   -0.1680 C   0  0  0  0  0  0  0  0  0  0  0  0
   -4.7430    0.7625   -0.9084 O   0  0  0  0  0  0  0  0  0  0  0  0
  1  2  1  0
  2  3  1  0
  3  4  1  0
  4  5  1  0
  5  6  1  0
  6  7  2  0
  7  8  1  0
  8  9  1  0
  9 10  2  0
 10 11  1  0
 11 12  1  0
 11 13  2  0
 13 14  1  0
 14 15  2  0
  6 16  1  0
 16 17  1  0
 17 18  1  0
 18 19  1  0
 19 20  2  0
 15  5  1  0
 15  9  1  0
 16  2  1  0
 19  2  1  0
M  END
>  <target>  (294) 
-5.282

$$$$

     RDKit          3D

 27 28  0  0  0  0  0  0  0  0999 V2000
   -5.8493   -1.0266    1.0325 C   0  0  0  0  0  0  0  0  0  0  0  0
   -5.0972   -1.3440   -0.2462 C   0  0  0  0  0  0  0  0  0  0  0  0
   -4.3168   -0.2106   -0.6532 O   0  0  0  0  0  0  0  0  0  0  0  0
   -3.0734   -0.1392   -0.1226 C   0  0  0  0  0  0  0  0  0  0  0  0
   -2.5712   -0.8931    0.6937 O   0  0  0  0  0  0  0  0  0  0  0  0
   -2.3773    1.0302   -0.6997 C   0  0  0  0  0  0  0  0  0  0  0  0
   -3.0192    2.2781   -0.6630 C   0  0  0  0  0  0  0  0  0  0  0  0
   -2.3702    3.4173   -1.1432 C   0  0  0  0  0  0  0  0  0  0  0  0
   -1.0791    3.3204   -1.6603 C   0  0  0  0  0  0  0  0  0  0  0  0
   -0.4342    2.0839   -1.7049 C   0  0  0  0  0  0  0  0  0  0  0  0
   -1.0813    0.9394   -1.2193 C   0  0  0  0  0  0  0  0  0  0  0  0
   -0.2682   -0.6290   -1.3547 S   0  0  0  0  0  0  0  0  0  0  0  0
    0.9708   -0.4328   -2.0828 O   0  0  0  0  0  0  0  0  0  0  0  0
   -1.2430   -1.5900   -1.8205 O   0  0  0  0  0  0  0  0  0  0  0  0
    0.0971   -0.9493    0.2728 N   0  0  0  0  0  0  0  0  0  0  0  0
    1.5217   -1.4059    0.5220 N   0  0  0  0  0  0  0  0  0  0  0  0
    1.7422   -2.7625    0.5814 C   0  0  0  0  0  0  0  0  0  0  0  0
    0.8624   -3.6187    0.5278 O   0  0  0  0  0  0  0  0  0  0  0  0
    2.5566   -0.4437    0.5955 C   0  0  0  0  0  0  0  0  0  0  0  0
    2.2107    0.8511    0.5062 N   0  0  0  0  0  0  0  0  0  0  0  0
    3.2111    1.7394    0.5602 C   0  0  0  0  0  0  0  0  0  0  0  0
    2.7094    3.3742    0.4176 Cl  0  0  0  0  0  0  0  0  0  0  0  0
    4.5305    1.4239    0.7127 C   0  0  0  0  0  0  0  0  0  0  0  0
    4.7758    0.0829    0.8102 C   0  0  0  0  0  0  0  0  0  0  0  0
    6.0981   -0.2795    0.9726 O   0  0  0  0  0  0  0  0  0  0  0  0
    6.3022   -1.6882    1.0341 C   0  0  0  0  0  0  0  0  0  0  0  0
    3.8225   -0.8634    0.7616 N   0  0  0  0  0  0  0  0  0  0  0  0
  1  2  1  0
  2  3  1  0
  3  4  1  0
  4  5  2  0
  4  6  1  0
  6  7  2  0
  7  8  1  0
  8  9  2  0
  9 10  1  0
 10 11  2  0
 11 12  1  0
 12 13  2  0
 12 14  2  0
 12 15  1  0
 15 16  1  0
 16 17  1  0
 17 18  2  0
 16 19  1  0
 19 20  2  0
 20 21  1  0
 21 22  1  0
 21 23  2  0
 23 24  1  0
 24 25  1  0
 25 26  1  0
 24 27  2  0
 11  6  1  0
 27 19  1  0
M  END
>  <target>  (295) 
-4.5760000000000005

$$$$

     RDKit          3D

 11 11  0  0  0  0  0  0  0  0999 V2000
   -3.1682   -0.1232   -0.3981 C   0  0  0  0  0  0  0  0  0  0  0  0
   -2.0210    0.0355   -1.2238 O   0  0  0  0  0  0  0  0  0  0  0  0
   -0.8027    0.0280   -0.6036 C   0  0  0  0  0  0  0  0  0  0  0  0
   -0.5806   -0.1214    0.7674 C   0  0  0  0  0  0  0  0  0  0  0  0
    0.7241   -0.1111    1.2755 C   0  0  0  0  0  0  0  0  0  0  0  0
    1.8084    0.0498    0.4032 C   0  0  0  0  0  0  0  0  0  0  0  0
    1.5955    0.2000   -0.9710 C   0  0  0  0  0  0  0  0  0  0  0  0
    0.2885    0.1879   -1.4650 C   0  0  0  0  0  0  0  0  0  0  0  0
    3.1766    0.0607    0.9352 N   0  0  0  0  0  0  0  0  0  0  0  0
    4.1079    0.2054    0.1304 O   0  0  0  0  0  0  0  0  0  0  0  0
    3.3201   -0.0756    2.1588 O   0  0  0  0  0  0  0  0  0  0  0  0
  1  2  1  0
  2  3  1  0
  3  4  2  0
  4  5  1  0
  5  6  2  0
  6  7  1  0
  7  8  2  0
  6  9  1  0
  9 10  1  0
  9 11  2  0
  8  3  1  0
M  CHG  2   9   1  10  -1
M  END
>  <target>  (296) 
-2.41

$$$$

     RDKit          3D

  7  6  0  0  0  0  0  0  0  0999 V2000
   -3.1963   -0.0177   -0.2032 C   0  0  0  0  0  0  0  0  0  0  0  0
   -1.8409   -0.6979   -0.0959 C   0  0  0  0  0  0  0  0  0  0  0  0
   -0.7054    0.3232   -0.0312 C   0  0  0  0  0  0  0  0  0  0  0  0
    0.6563   -0.3651    0.0767 C   0  0  0  0  0  0  0  0  0  0  0  0
    1.7931    0.6566    0.1416 C   0  0  0  0  0  0  0  0  0  0  0  0
    3.1458   -0.0349    0.2488 C   0  0  0  0  0  0  0  0  0  0  0  0
    4.4537    1.1681    0.3230 Cl  0  0  0  0  0  0  0  0  0  0  0  0
  1  2  1  0
  2  3  1  0
  3  4  1  0
  4  5  1  0
  5  6  1  0
  6  7  1  0
M  END
>  <target>  (297) 
-3.12

$$$$

     RDKit          3D

 20 21  0  0  0  0  0  0  0  0999 V2000
   -3.5672   -2.7999   -0.2152 Cl  0  0  0  0  0  0  0  0  0  0  0  0
   -2.8246   -1.2374   -0.1819 C   0  0  0  0  0  0  0  0  0  0  0  0
   -1.4305   -1.2029   -0.0867 C   0  0  0  0  0  0  0  0  0  0  0  0
   -0.7364    0.0170   -0.0521 C   0  0  0  0  0  0  0  0  0  0  0  0
   -1.4785    1.2168   -0.1230 C   0  0  0  0  0  0  0  0  0  0  0  0
   -0.6230    2.7346   -0.0957 Cl  0  0  0  0  0  0  0  0  0  0  0  0
   -2.8855    1.1866   -0.2194 C   0  0  0  0  0  0  0  0  0  0  0  0
   -3.7832    2.6764   -0.3078 Cl  0  0  0  0  0  0  0  0  0  0  0  0
   -3.5615   -0.0471   -0.2480 C   0  0  0  0  0  0  0  0  0  0  0  0
   -5.2946   -0.1083   -0.3693 Cl  0  0  0  0  0  0  0  0  0  0  0  0
    0.7358   -0.0072    0.0614 C   0  0  0  0  0  0  0  0  0  0  0  0
    1.5024   -0.0549   -1.1138 C   0  0  0  0  0  0  0  0  0  0  0  0
    2.8993   -0.0682   -1.0642 C   0  0  0  0  0  0  0  0  0  0  0  0
    3.7345   -0.1269   -2.5784 Cl  0  0  0  0  0  0  0  0  0  0  0  0
    3.5663   -0.0368    0.1679 C   0  0  0  0  0  0  0  0  0  0  0  0
    5.3040   -0.0570    0.2115 Cl  0  0  0  0  0  0  0  0  0  0  0  0
    2.8173    0.0067    1.3583 C   0  0  0  0  0  0  0  0  0  0  0  0
    3.6280    0.0388    2.8994 Cl  0  0  0  0  0  0  0  0  0  0  0  0
    1.4078    0.0201    1.3036 C   0  0  0  0  0  0  0  0  0  0  0  0
    0.4630    0.0642    2.7671 Cl  0  0  0  0  0  0  0  0  0  0  0  0
  1  2  1  0
  2  3  2  0
  3  4  1  0
  4  5  2  0
  5  6  1  0
  5  7  1  0
  7  8  1  0
  7  9  2  0
  9 10  1  0
  4 11  1  0
 11 12  2  0
 12 13  1  0
 13 14  1  0
 13 15  2  0
 15 16  1  0
 15 17  1  0
 17 18  1  0
 17 19  2  0
 19 20  1  0
  9  2  1  0
 19 11  1  0
M  END
>  <target>  (298) 
-9.16

$$$$

     RDKit          3D

 34 36  0  0  0  0  0  0  0  0999 V2000
    0.3459    3.8961   -1.3868 O   0  0  0  0  0  0  0  0  0  0  0  0
    0.2373    2.4754   -1.4532 C   0  0  0  0  0  0  0  0  0  0  0  0
   -1.2299    2.0653   -1.4196 C   0  0  0  0  0  0  0  0  0  0  0  0
   -1.7928    2.4774   -0.1525 O   0  0  0  0  0  0  0  0  0  0  0  0
   -2.6551    1.4073    0.3303 C   0  0  0  0  0  0  0  0  0  0  0  0
   -3.9804    2.0991    0.7347 C   0  0  0  0  0  0  0  0  0  0  0  0
   -3.7709    2.9618    1.8645 O   0  0  0  0  0  0  0  0  0  0  0  0
   -1.9543    0.8782    1.4662 O   0  0  0  0  0  0  0  0  0  0  0  0
   -2.6242   -0.1646    2.1726 C   0  0  0  0  0  0  0  0  0  0  0  0
   -2.2318   -1.4242    1.6299 O   0  0  0  0  0  0  0  0  0  0  0  0
   -0.9434   -1.9079    2.0378 C   0  0  0  0  0  0  0  0  0  0  0  0
   -0.2348   -2.4217    0.7761 C   0  0  0  0  0  0  0  0  0  0  0  0
    0.1381   -1.2874   -0.0323 O   0  0  0  0  0  0  0  0  0  0  0  0
    1.2786   -1.5302   -0.8656 C   0  0  0  0  0  0  0  0  0  0  0  0
    1.3392   -0.4026   -1.7429 O   0  0  0  0  0  0  0  0  0  0  0  0
    2.4629   -0.4028   -2.6222 C   0  0  0  0  0  0  0  0  0  0  0  0
    2.3184    0.8020   -3.5588 C   0  0  0  0  0  0  0  0  0  0  0  0
    3.4293    0.9165   -4.4423 O   0  0  0  0  0  0  0  0  0  0  0  0
    3.7635   -0.3580   -1.8022 C   0  0  0  0  0  0  0  0  0  0  0  0
    3.7947    0.7976   -0.9471 O   0  0  0  0  0  0  0  0  0  0  0  0
    3.8371   -1.6073   -0.9147 C   0  0  0  0  0  0  0  0  0  0  0  0
    3.9674   -2.7766   -1.7265 O   0  0  0  0  0  0  0  0  0  0  0  0
    2.5873   -1.7115   -0.0315 C   0  0  0  0  0  0  0  0  0  0  0  0
    2.6747   -0.7603    1.0471 O   0  0  0  0  0  0  0  0  0  0  0  0
   -0.0729   -0.8763    2.7838 C   0  0  0  0  0  0  0  0  0  0  0  0
    1.1533   -1.4533    3.2565 O   0  0  0  0  0  0  0  0  0  0  0  0
   -0.8329   -0.2982    3.9805 C   0  0  0  0  0  0  0  0  0  0  0  0
   -0.6952   -1.1695    5.1237 O   0  0  0  0  0  0  0  0  0  0  0  0
   -2.3236   -0.0761    3.6828 C   0  0  0  0  0  0  0  0  0  0  0  0
   -3.1116   -1.0464    4.3985 O   0  0  0  0  0  0  0  0  0  0  0  0
   -2.8030    0.4013   -0.8421 C   0  0  0  0  0  0  0  0  0  0  0  0
   -3.8762    0.7652   -1.7227 O   0  0  0  0  0  0  0  0  0  0  0  0
   -1.4741    0.5631   -1.5671 C   0  0  0  0  0  0  0  0  0  0  0  0
   -0.4513   -0.2456   -0.9828 O   0  0  0  0  0  0  0  0  0  0  0  0
  1  2  1  0
  2  3  1  0
  3  4  1  0
  4  5  1  0
  5  6  1  0
  6  7  1  0
  5  8  1  0
  8  9  1  0
  9 10  1  0
 10 11  1  0
 11 12  1  0
 12 13  1  0
 13 14  1  0
 14 15  1  0
 15 16  1  0
 16 17  1  0
 17 18  1  0
 16 19  1  0
 19 20  1  0
 19 21  1  0
 21 22  1  0
 21 23  1  0
 23 24  1  0
 11 25  1  0
 25 26  1  0
 25 27  1  0
 27 28  1  0
 27 29  1  0
 29 30  1  0
  5 31  1  0
 31 32  1  0
 31 33  1  0
 33 34  1  0
 33  3  1  0
 29  9  1  0
 23 14  1  0
M  END
>  <target>  (299) 
-0.41

$$$$

     RDKit          3D

 26 25  0  0  0  0  0  0  0  0999 V2000
   10.3496   -4.0789    1.3631 C   0  0  0  0  0  0  0  0  0  0  0  0
   10.6566   -2.5914    1.2934 C   0  0  0  0  0  0  0  0  0  0  0  0
    9.4990   -1.8088    0.6719 C   0  0  0  0  0  0  0  0  0  0  0  0
    9.8163   -0.3134    0.6016 C   0  0  0  0  0  0  0  0  0  0  0  0
    8.6464    0.5328    0.0892 C   0  0  0  0  0  0  0  0  0  0  0  0
    8.2776    0.2365   -1.3668 C   0  0  0  0  0  0  0  0  0  0  0  0
    7.2663    1.2293   -1.9492 C   0  0  0  0  0  0  0  0  0  0  0  0
    5.8951    1.1682   -1.2703 C   0  0  0  0  0  0  0  0  0  0  0  0
    4.8936    2.0932   -1.9672 C   0  0  0  0  0  0  0  0  0  0  0  0
    3.5372    2.1656   -1.2599 C   0  0  0  0  0  0  0  0  0  0  0  0
    2.7681    0.8428   -1.2818 C   0  0  0  0  0  0  0  0  0  0  0  0
    1.3753    1.0014   -0.6652 C   0  0  0  0  0  0  0  0  0  0  0  0
    0.6062   -0.3215   -0.6870 C   0  0  0  0  0  0  0  0  0  0  0  0
   -0.7501   -0.2491    0.0203 C   0  0  0  0  0  0  0  0  0  0  0  0
   -1.7528    0.6715   -0.6789 C   0  0  0  0  0  0  0  0  0  0  0  0
   -3.1234    0.6163    0.0017 C   0  0  0  0  0  0  0  0  0  0  0  0
   -4.1242    1.5427   -0.6927 C   0  0  0  0  0  0  0  0  0  0  0  0
   -5.5422    1.4441   -0.1201 C   0  0  0  0  0  0  0  0  0  0  0  0
   -5.6427    1.9166    1.3302 C   0  0  0  0  0  0  0  0  0  0  0  0
   -7.0803    2.0711    1.8414 C   0  0  0  0  0  0  0  0  0  0  0  0
   -7.8807    0.7643    1.9032 C   0  0  0  0  0  0  0  0  0  0  0  0
   -8.7713    0.5508    0.6747 C   0  0  0  0  0  0  0  0  0  0  0  0
   -9.6440   -0.7061    0.7682 C   0  0  0  0  0  0  0  0  0  0  0  0
   -8.8399   -2.0066    0.6851 C   0  0  0  0  0  0  0  0  0  0  0  0
   -9.7109   -3.2627    0.7744 C   0  0  0  0  0  0  0  0  0  0  0  0
  -10.6385   -3.4474   -0.4166 C   0  0  0  0  0  0  0  0  0  0  0  0
  1  2  1  0
  2  3  1  0
  3  4  1  0
  4  5  1  0
  5  6  1  0
  6  7  1  0
  7  8  1  0
  8  9  1  0
  9 10  1  0
 10 11  1  0
 11 12  1  0
 12 13  1  0
 13 14  1  0
 14 15  1  0
 15 16  1  0
 16 17  1  0
 17 18  1  0
 18 19  1  0
 19 20  1  0
 20 21  1  0
 21 22  1  0
 22 23  1  0
 23 24  1  0
 24 25  1  0
 25 26  1  0
M  END
>  <target>  (300) 
-8.334

$$$$

     RDKit          3D

 19 21  0  0  0  0  0  0  0  0999 V2000
   -2.5634    1.3002    1.8652 C   0  0  0  0  0  0  0  0  0  0  0  0
   -1.6711    1.7302    0.7021 C   0  0  0  0  0  0  0  0  0  0  0  0
   -0.7101    0.6716    0.3409 N   0  0  0  0  0  0  0  0  0  0  0  0
    0.5411    1.0844   -0.1826 C   0  0  0  0  0  0  0  0  0  0  0  0
    0.6804    2.3217   -0.8512 C   0  0  0  0  0  0  0  0  0  0  0  0
    1.9082    2.7590   -1.3475 C   0  0  0  0  0  0  0  0  0  0  0  0
    3.0314    1.9651   -1.1900 C   0  0  0  0  0  0  0  0  0  0  0  0
    2.9196    0.7324   -0.5469 C   0  0  0  0  0  0  0  0  0  0  0  0
    1.6848    0.2621   -0.0500 C   0  0  0  0  0  0  0  0  0  0  0  0
    1.6474   -1.0006    0.6284 N   0  0  0  0  0  0  0  0  0  0  0  0
    2.8600   -1.4461    1.3094 C   0  0  0  0  0  0  0  0  0  0  0  0
    0.5859   -1.9158    0.6124 C   0  0  0  0  0  0  0  0  0  0  0  0
    0.6614   -3.0059    1.1920 O   0  0  0  0  0  0  0  0  0  0  0  0
   -0.6426   -1.6995   -0.1768 C   0  0  0  0  0  0  0  0  0  0  0  0
   -1.2398   -2.8198   -0.7781 C   0  0  0  0  0  0  0  0  0  0  0  0
   -2.4594   -2.6928   -1.4281 C   0  0  0  0  0  0  0  0  0  0  0  0
   -3.0531   -1.4483   -1.4342 C   0  0  0  0  0  0  0  0  0  0  0  0
   -2.5102   -0.3563   -0.8529 N   0  0  0  0  0  0  0  0  0  0  0  0
   -1.3026   -0.4763   -0.2298 C   0  0  0  0  0  0  0  0  0  0  0  0
  1  2  1  0
  2  3  1  0
  3  4  1  0
  4  5  2  0
  5  6  1  0
  6  7  2  0
  7  8  1  0
  8  9  2  0
  9 10  1  0
 10 11  1  0
 10 12  1  0
 12 13  2  0
 12 14  1  0
 14 15  2  0
 15 16  1  0
 16 17  2  0
 17 18  1  0
 18 19  2  0
  9  4  1  0
 19  3  1  0
 19 14  1  0
M  END
>  <target>  (301) 
-3.324

$$$$

     RDKit          3D

  4  3  0  0  0  0  0  0  0  0999 V2000
   -0.8055    0.1331    0.0050 C   0  0  0  0  0  0  0  0  0  0  0  0
    0.6792   -0.1504   -0.1348 C   0  0  0  0  0  0  0  0  0  0  0  0
    1.1707   -1.4378    0.9897 Cl  0  0  0  0  0  0  0  0  0  0  0  0
    1.6220    1.3240    0.1823 Cl  0  0  0  0  0  0  0  0  0  0  0  0
  1  2  1  0
  2  3  1  0
  2  4  1  0
M  END
>  <target>  (302) 
-1.29

$$$$

     RDKit          3D

 11 11  0  0  0  0  0  0  0  0999 V2000
   -3.1694   -1.3870    0.2593 N   0  0  0  0  0  0  0  0  0  0  0  0
   -1.9708   -0.6747    0.1436 C   0  0  0  0  0  0  0  0  0  0  0  0
   -1.4293   -0.4107   -1.1189 C   0  0  0  0  0  0  0  0  0  0  0  0
   -0.1757    0.1936   -1.2476 C   0  0  0  0  0  0  0  0  0  0  0  0
    0.5645    0.4892   -0.1018 C   0  0  0  0  0  0  0  0  0  0  0  0
    0.0591    0.1906    1.1646 C   0  0  0  0  0  0  0  0  0  0  0  0
   -1.1960   -0.4137    1.2786 C   0  0  0  0  0  0  0  0  0  0  0  0
    2.1387    1.2782   -0.2540 S   0  0  0  0  0  0  0  0  0  0  0  0
    3.1788   -0.0351   -0.3569 N   0  0  0  0  0  0  0  0  0  0  0  0
    2.2153    1.9464   -1.5322 O   0  0  0  0  0  0  0  0  0  0  0  0
    2.4605    1.9433    0.9871 O   0  0  0  0  0  0  0  0  0  0  0  0
  1  2  1  0
  2  3  2  0
  3  4  1  0
  4  5  2  0
  5  6  1  0
  6  7  2  0
  5  8  1  0
  8  9  1  0
  8 10  2  0
  8 11  2  0
  7  2  1  0
M  END
>  <target>  (303) 
-1.34

$$$$

     RDKit          3D

 22 22  0  0  0  0  0  0  0  0999 V2000
   -3.3578   -1.4923    1.8420 C   0  0  0  0  0  0  0  0  0  0  0  0
   -2.3380   -2.1289    0.9088 C   0  0  0  0  0  0  0  0  0  0  0  0
   -2.1716   -1.3594   -0.4039 C   0  0  0  0  0  0  0  0  0  0  0  0
   -1.5188   -0.0497   -0.1861 N   0  0  0  0  0  0  0  0  0  0  0  0
   -2.0848    1.0893   -0.9408 C   0  0  0  0  0  0  0  0  0  0  0  0
   -3.3388    1.6162   -0.2386 C   0  0  0  0  0  0  0  0  0  0  0  0
   -3.9135    2.8241   -0.9611 C   0  0  0  0  0  0  0  0  0  0  0  0
   -0.1139   -0.0531   -0.1151 C   0  0  0  0  0  0  0  0  0  0  0  0
    0.7682   -0.3683   -1.1667 C   0  0  0  0  0  0  0  0  0  0  0  0
    2.1727   -0.3949   -1.0226 C   0  0  0  0  0  0  0  0  0  0  0  0
    2.7685   -0.0845    0.2050 C   0  0  0  0  0  0  0  0  0  0  0  0
    1.9303    0.2649    1.2676 C   0  0  0  0  0  0  0  0  0  0  0  0
    0.5320    0.2827    1.0917 C   0  0  0  0  0  0  0  0  0  0  0  0
   -0.2488    0.6919    2.2415 N   0  0  0  0  0  0  0  0  0  0  0  0
   -0.3451   -0.1227    3.1707 O   0  0  0  0  0  0  0  0  0  0  0  0
   -0.6856    1.8514    2.2443 O   0  0  0  0  0  0  0  0  0  0  0  0
    4.2745   -0.1051    0.3975 C   0  0  0  0  0  0  0  0  0  0  0  0
    4.9666    0.9354   -0.4863 C   0  0  0  0  0  0  0  0  0  0  0  0
    4.8541   -1.5006    0.1535 C   0  0  0  0  0  0  0  0  0  0  0  0
    0.2790   -0.6580   -2.4978 N   0  0  0  0  0  0  0  0  0  0  0  0
    0.3014   -1.8427   -2.8579 O   0  0  0  0  0  0  0  0  0  0  0  0
   -0.0706    0.3039   -3.1943 O   0  0  0  0  0  0  0  0  0  0  0  0
  1  2  1  0
  2  3  1  0
  3  4  1  0
  4  5  1  0
  5  6  1  0
  6  7  1  0
  4  8  1  0
  8  9  2  0
  9 10  1  0
 10 11  2  0
 11 12  1  0
 12 13  2  0
 13 14  1  0
 14 15  1  0
 14 16  2  0
 11 17  1  0
 17 18  1  0
 17 19  1  0
  9 20  1  0
 20 21  1  0
 20 22  2  0
 13  8  1  0
M  CHG  4  14   1  15  -1  20   1  21  -1
M  END
>  <target>  (304) 
-6.49

$$$$

     RDKit          3D

 12 12  0  0  0  0  0  0  0  0999 V2000
   -0.8173    1.7782    1.7689 Cl  0  0  0  0  0  0  0  0  0  0  0  0
   -0.9283    1.2206    0.0559 C   0  0  0  0  0  0  0  0  0  0  0  0
   -1.5216   -0.1954    0.0348 C   0  0  0  0  0  0  0  0  0  0  0  0
   -1.9483   -0.6208   -1.6666 Cl  0  0  0  0  0  0  0  0  0  0  0  0
   -0.5479   -1.2153    0.6571 C   0  0  0  0  0  0  0  0  0  0  0  0
   -1.2727   -2.8655    0.6308 Cl  0  0  0  0  0  0  0  0  0  0  0  0
    0.8419   -1.1898   -0.0076 C   0  0  0  0  0  0  0  0  0  0  0  0
    1.9720   -2.2656    0.9065 Cl  0  0  0  0  0  0  0  0  0  0  0  0
    1.4362    0.2364   -0.0767 C   0  0  0  0  0  0  0  0  0  0  0  0
    2.9350    0.2121   -1.0880 Cl  0  0  0  0  0  0  0  0  0  0  0  0
    0.4397    1.2606   -0.6531 C   0  0  0  0  0  0  0  0  0  0  0  0
    1.1080    2.9344   -0.6247 Cl  0  0  0  0  0  0  0  0  0  0  0  0
  1  2  1  0
  2  3  1  0
  3  4  1  0
  3  5  1  0
  5  6  1  0
  5  7  1  0
  7  8  1  0
  7  9  1  0
  9 10  1  0
  9 11  1  0
 11 12  1  0
 11  2  1  0
M  END
>  <target>  (305) 
-4.64

$$$$

     RDKit          3D

 22 22  0  0  0  0  0  0  0  0999 V2000
   -4.8376   -2.1341   -0.1956 C   0  0  0  0  0  0  0  0  0  0  0  0
   -3.6389   -1.6847   -1.0061 C   0  0  0  0  0  0  0  0  0  0  0  0
   -2.6106   -1.2989   -0.1091 O   0  0  0  0  0  0  0  0  0  0  0  0
   -1.3457   -0.4584   -0.6800 P   0  0  0  0  0  0  0  0  0  0  0  0
   -0.3540   -1.3732   -2.0842 S   0  0  0  0  0  0  0  0  0  0  0  0
   -1.9654    1.0104   -1.1198 N   0  0  0  0  0  0  0  0  0  0  0  0
   -2.3071    2.0223   -0.1192 C   0  0  0  0  0  0  0  0  0  0  0  0
   -3.4668    1.5820    0.7707 C   0  0  0  0  0  0  0  0  0  0  0  0
   -2.6764    3.3180   -0.8453 C   0  0  0  0  0  0  0  0  0  0  0  0
   -0.5423   -0.1689    0.7005 O   0  0  0  0  0  0  0  0  0  0  0  0
    0.3322   -1.0742    1.2315 C   0  0  0  0  0  0  0  0  0  0  0  0
   -0.1882   -2.1584    1.9412 C   0  0  0  0  0  0  0  0  0  0  0  0
    0.6749   -3.0906    2.5134 C   0  0  0  0  0  0  0  0  0  0  0  0
    2.0535   -2.9332    2.3848 C   0  0  0  0  0  0  0  0  0  0  0  0
    2.5738   -1.8392    1.6864 C   0  0  0  0  0  0  0  0  0  0  0  0
    1.7173   -0.8910    1.1034 C   0  0  0  0  0  0  0  0  0  0  0  0
    2.2536    0.2850    0.3518 C   0  0  0  0  0  0  0  0  0  0  0  0
    1.5695    1.1817   -0.1168 O   0  0  0  0  0  0  0  0  0  0  0  0
    3.6061    0.2015    0.2581 O   0  0  0  0  0  0  0  0  0  0  0  0
    4.2585    1.2482   -0.4848 C   0  0  0  0  0  0  0  0  0  0  0  0
    4.2090    0.9248   -1.9739 C   0  0  0  0  0  0  0  0  0  0  0  0
    5.6999    1.3134    0.0051 C   0  0  0  0  0  0  0  0  0  0  0  0
  1  2  1  0
  2  3  1  0
  3  4  1  0
  4  5  2  0
  4  6  1  0
  6  7  1  0
  7  8  1  0
  7  9  1  0
  4 10  1  0
 10 11  1  0
 11 12  2  0
 12 13  1  0
 13 14  2  0
 14 15  1  0
 15 16  2  0
 16 17  1  0
 17 18  2  0
 17 19  1  0
 19 20  1  0
 20 21  1  0
 20 22  1  0
 16 11  1  0
M  END
>  <target>  (306) 
-4.194

$$$$

     RDKit          3D

  9  9  0  0  0  0  0  0  0  0999 V2000
    1.9885   -2.3511   -0.1333 Cl  0  0  0  0  0  0  0  0  0  0  0  0
    0.8691   -1.0332   -0.0586 C   0  0  0  0  0  0  0  0  0  0  0  0
   -0.4936   -1.3533   -0.0933 C   0  0  0  0  0  0  0  0  0  0  0  0
   -1.4537   -0.3452   -0.0372 C   0  0  0  0  0  0  0  0  0  0  0  0
   -1.0529    0.9861    0.0537 C   0  0  0  0  0  0  0  0  0  0  0  0
    0.3082    1.3128    0.0887 C   0  0  0  0  0  0  0  0  0  0  0  0
    0.7111    2.9921    0.2024 Cl  0  0  0  0  0  0  0  0  0  0  0  0
    1.2829    0.3046    0.0328 C   0  0  0  0  0  0  0  0  0  0  0  0
    2.9710    0.7055    0.0760 Cl  0  0  0  0  0  0  0  0  0  0  0  0
  1  2  1  0
  2  3  2  0
  3  4  1  0
  4  5  2  0
  5  6  1  0
  6  7  1  0
  6  8  2  0
  8  9  1  0
  8  2  1  0
M  END
>  <target>  (307) 
-4.0

$$$$

     RDKit          3D

  5  4  0  0  0  0  0  0  0  0999 V2000
    1.3794   -1.1259   -0.0647 Cl  0  0  0  0  0  0  0  0  0  0  0  0
   -0.0000   -0.0000    0.0000 C   0  0  0  0  0  0  0  0  0  0  0  0
    0.5952    1.6756   -0.1127 Cl  0  0  0  0  0  0  0  0  0  0  0  0
   -1.1017   -0.3317   -1.3604 Cl  0  0  0  0  0  0  0  0  0  0  0  0
   -0.8729   -0.2180    1.5379 Cl  0  0  0  0  0  0  0  0  0  0  0  0
  1  2  1  0
  2  3  1  0
  2  4  1  0
  2  5  1  0
M  END
>  <target>  (308) 
-2.31

$$$$

     RDKit          3D

 11 11  0  0  0  0  0  0  0  0999 V2000
    2.7841   -1.5099    0.0574 O   0  0  0  0  0  0  0  0  0  0  0  0
    2.3869   -0.3379    0.0124 N   0  0  0  0  0  0  0  0  0  0  0  0
    3.1242    0.6565   -0.0260 O   0  0  0  0  0  0  0  0  0  0  0  0
    0.9358   -0.1104    0.0040 C   0  0  0  0  0  0  0  0  0  0  0  0
    0.0619   -1.2047    0.0463 C   0  0  0  0  0  0  0  0  0  0  0  0
   -1.3193   -0.9836    0.0382 C   0  0  0  0  0  0  0  0  0  0  0  0
   -2.3512   -2.3685    0.0917 Cl  0  0  0  0  0  0  0  0  0  0  0  0
   -1.8236    0.3235   -0.0120 C   0  0  0  0  0  0  0  0  0  0  0  0
   -3.5167    0.6636   -0.0246 Cl  0  0  0  0  0  0  0  0  0  0  0  0
   -0.9426    1.4103   -0.0540 C   0  0  0  0  0  0  0  0  0  0  0  0
    0.4388    1.1988   -0.0462 C   0  0  0  0  0  0  0  0  0  0  0  0
  1  2  1  0
  2  3  2  0
  2  4  1  0
  4  5  2  0
  5  6  1  0
  6  7  1  0
  6  8  2  0
  8  9  1  0
  8 10  1  0
 10 11  2  0
 11  4  1  0
M  CHG  2   1  -1   2   1
M  END
>  <target>  (309) 
-3.2

$$$$

     RDKit          3D

  9  9  0  0  0  0  0  0  0  0999 V2000
   -1.2124    2.3294    1.0704 O   0  0  0  0  0  0  0  0  0  0  0  0
   -0.4682    1.7697   -0.0147 C   0  0  0  0  0  0  0  0  0  0  0  0
    0.8455    1.2131    0.5385 C   0  0  0  0  0  0  0  0  0  0  0  0
    1.6167    0.3346   -0.4415 C   0  0  0  0  0  0  0  0  0  0  0  0
    1.7199   -1.1295   -0.0176 C   0  0  0  0  0  0  0  0  0  0  0  0
    0.4540   -1.7997    0.5186 C   0  0  0  0  0  0  0  0  0  0  0  0
   -0.7850   -1.6882   -0.3669 C   0  0  0  0  0  0  0  0  0  0  0  0
   -1.7117   -0.5107   -0.0371 C   0  0  0  0  0  0  0  0  0  0  0  0
   -1.3781    0.7925   -0.7658 C   0  0  0  0  0  0  0  0  0  0  0  0
  1  2  1  0
  2  3  1  0
  3  4  1  0
  4  5  1  0
  5  6  1  0
  6  7  1  0
  7  8  1  0
  8  9  1  0
  9  2  1  0
M  END
>  <target>  (310) 
-1.29

$$$$

     RDKit          3D

 22 25  0  0  0  0  0  0  0  0999 V2000
   -4.6346   -0.7439   -0.3828 C   0  0  0  0  0  0  0  0  0  0  0  0
   -3.5365    0.2575   -0.7675 C   0  0  0  0  0  0  0  0  0  0  0  0
   -4.1527    1.5350   -0.9003 O   0  0  0  0  0  0  0  0  0  0  0  0
   -2.9170   -0.1414   -2.1167 C   0  0  0  0  0  0  0  0  0  0  0  0
   -1.6411   -0.9229   -1.7943 C   0  0  0  0  0  0  0  0  0  0  0  0
   -1.4876   -0.9128   -0.2616 C   0  0  0  0  0  0  0  0  0  0  0  0
   -0.0337   -0.9409    0.2622 C   0  0  0  0  0  0  0  0  0  0  0  0
    0.7408   -2.1313   -0.3241 C   0  0  0  0  0  0  0  0  0  0  0  0
    2.1468   -2.2184    0.2517 C   0  0  0  0  0  0  0  0  0  0  0  0
    2.9073   -0.9305    0.0476 C   0  0  0  0  0  0  0  0  0  0  0  0
    4.1273   -0.9605   -0.5175 C   0  0  0  0  0  0  0  0  0  0  0  0
    4.9615    0.2568   -0.6336 C   0  0  0  0  0  0  0  0  0  0  0  0
    6.0460    0.1942   -1.2066 O   0  0  0  0  0  0  0  0  0  0  0  0
    4.4760    1.5117    0.0403 C   0  0  0  0  0  0  0  0  0  0  0  0
    2.9595    1.6015   -0.0427 C   0  0  0  0  0  0  0  0  0  0  0  0
    2.2224    0.3537    0.5320 C   0  0  0  0  0  0  0  0  0  0  0  0
    2.3096    0.3903    2.0749 C   0  0  0  0  0  0  0  0  0  0  0  0
    0.7292    0.3866    0.0180 C   0  0  0  0  0  0  0  0  0  0  0  0
   -0.0849    1.5693    0.5784 C   0  0  0  0  0  0  0  0  0  0  0  0
   -1.4967    1.6230   -0.0051 C   0  0  0  0  0  0  0  0  0  0  0  0
   -2.3083    0.3145    0.1967 C   0  0  0  0  0  0  0  0  0  0  0  0
   -2.7128    0.2005    1.6783 C   0  0  0  0  0  0  0  0  0  0  0  0
  1  2  1  0
  2  3  1  0
  2  4  1  0
  4  5  1  0
  5  6  1  0
  6  7  1  0
  7  8  1  0
  8  9  1  0
  9 10  1  0
 10 11  2  0
 11 12  1  0
 12 13  2  0
 12 14  1  0
 14 15  1  0
 15 16  1  0
 16 17  1  0
 16 18  1  0
 18 19  1  0
 19 20  1  0
 20 21  1  0
 21 22  1  0
 21  2  1  0
 21  6  1  0
 18  7  1  0
 16 10  1  0
M  END
>  <target>  (311) 
-3.9989999999999997

$$$$

     RDKit          3D

 13 13  0  0  0  0  0  0  0  0999 V2000
   -4.7617   -0.5631    0.3815 C   0  0  0  0  0  0  0  0  0  0  0  0
   -3.2838   -0.8553    0.1934 C   0  0  0  0  0  0  0  0  0  0  0  0
   -2.5757    0.3794    0.2902 O   0  0  0  0  0  0  0  0  0  0  0  0
   -1.2185    0.3299    0.1357 C   0  0  0  0  0  0  0  0  0  0  0  0
   -0.5751    1.5649    0.2200 C   0  0  0  0  0  0  0  0  0  0  0  0
    0.8130    1.6573    0.0795 C   0  0  0  0  0  0  0  0  0  0  0  0
    1.5803    0.5111   -0.1503 C   0  0  0  0  0  0  0  0  0  0  0  0
    2.9727    0.6771   -0.2733 N   0  0  0  0  0  0  0  0  0  0  0  0
    3.9004   -0.2702   -0.6123 C   0  0  0  0  0  0  0  0  0  0  0  0
    5.1710    0.2284   -0.5606 N   0  0  0  0  0  0  0  0  0  0  0  0
    3.7206   -1.4329   -0.9411 O   0  0  0  0  0  0  0  0  0  0  0  0
    0.9357   -0.7239   -0.2288 C   0  0  0  0  0  0  0  0  0  0  0  0
   -0.4566   -0.8150   -0.0883 C   0  0  0  0  0  0  0  0  0  0  0  0
  1  2  1  0
  2  3  1  0
  3  4  1  0
  4  5  2  0
  5  6  1  0
  6  7  2  0
  7  8  1  0
  8  9  1  0
  9 10  1  0
  9 11  2  0
  7 12  1  0
 12 13  2  0
 13  4  1  0
M  END
>  <target>  (312) 
-2.17

$$$$

     RDKit          3D

  8  8  0  0  0  0  0  0  0  0999 V2000
   -2.9109   -0.0220   -0.2335 C   0  0  0  0  0  0  0  0  0  0  0  0
   -1.4052    0.0515   -0.4803 C   0  0  0  0  0  0  0  0  0  0  0  0
   -0.7309   -1.2768   -0.1147 C   0  0  0  0  0  0  0  0  0  0  0  0
    0.7834   -1.2125   -0.3058 C   0  0  0  0  0  0  0  0  0  0  0  0
    1.4052   -0.0515    0.4803 C   0  0  0  0  0  0  0  0  0  0  0  0
    2.9109    0.0220    0.2335 C   0  0  0  0  0  0  0  0  0  0  0  0
    0.7309    1.2768    0.1147 C   0  0  0  0  0  0  0  0  0  0  0  0
   -0.7834    1.2125    0.3058 C   0  0  0  0  0  0  0  0  0  0  0  0
  1  2  1  0
  2  3  1  0
  3  4  1  0
  4  5  1  0
  5  6  1  0
  5  7  1  0
  7  8  1  0
  8  2  1  0
M  END
>  <target>  (313) 
-4.47

$$$$

     RDKit          3D

 14 16  0  0  0  0  0  0  0  0999 V2000
   -3.3593   -0.6100    0.0103 C   0  0  0  0  0  0  0  0  0  0  0  0
   -2.5349   -1.7121   -0.0672 C   0  0  0  0  0  0  0  0  0  0  0  0
   -1.1858   -1.6418   -0.0818 N   0  0  0  0  0  0  0  0  0  0  0  0
   -0.5878   -0.4267   -0.0174 C   0  0  0  0  0  0  0  0  0  0  0  0
   -1.3641    0.7500    0.0639 C   0  0  0  0  0  0  0  0  0  0  0  0
   -2.7614    0.6401    0.0768 C   0  0  0  0  0  0  0  0  0  0  0  0
   -0.7457    2.0022    0.1303 C   0  0  0  0  0  0  0  0  0  0  0  0
    0.6436    2.0946    0.1164 C   0  0  0  0  0  0  0  0  0  0  0  0
    1.4390    0.9669    0.0378 C   0  0  0  0  0  0  0  0  0  0  0  0
    2.7741    1.1295    0.0290 N   0  0  0  0  0  0  0  0  0  0  0  0
    3.5491    0.0262   -0.0479 C   0  0  0  0  0  0  0  0  0  0  0  0
    3.0506   -1.2579   -0.1178 C   0  0  0  0  0  0  0  0  0  0  0  0
    1.6702   -1.4173   -0.1081 C   0  0  0  0  0  0  0  0  0  0  0  0
    0.8175   -0.2993   -0.0293 C   0  0  0  0  0  0  0  0  0  0  0  0
  1  2  2  0
  2  3  1  0
  3  4  2  0
  4  5  1  0
  5  6  2  0
  5  7  1  0
  7  8  2  0
  8  9  1  0
  9 10  2  0
 10 11  1  0
 11 12  2  0
 12 13  1  0
 13 14  2  0
  6  1  1  0
 14  4  1  0
 14  9  1  0
M  END
>  <target>  (314) 
-2.68

$$$$

     RDKit          3D

  6  5  0  0  0  0  0  0  0  0999 V2000
    2.1306    0.1150   -0.1467 C   0  0  0  0  0  0  0  0  0  0  0  0
    0.9670   -0.4332   -0.7465 O   0  0  0  0  0  0  0  0  0  0  0  0
   -0.2915   -0.1225   -0.1295 C   0  0  0  0  0  0  0  0  0  0  0  0
   -1.3447   -0.8416   -0.9847 C   0  0  0  0  0  0  0  0  0  0  0  0
   -0.5767    1.3838   -0.1586 C   0  0  0  0  0  0  0  0  0  0  0  0
   -0.3655   -0.6640    1.3032 C   0  0  0  0  0  0  0  0  0  0  0  0
  1  2  1  0
  2  3  1  0
  3  4  1  0
  3  5  1  0
  3  6  1  0
M  END
>  <target>  (315) 
-0.24

$$$$

     RDKit          3D

 11 11  0  0  0  0  0  0  0  0999 V2000
   -4.2822    0.7123    0.1469 C   0  0  0  0  0  0  0  0  0  0  0  0
   -3.4744   -0.1148   -0.6808 O   0  0  0  0  0  0  0  0  0  0  0  0
   -2.1394   -0.1639   -0.3892 C   0  0  0  0  0  0  0  0  0  0  0  0
   -1.4998    0.5087    0.6508 C   0  0  0  0  0  0  0  0  0  0  0  0
   -0.1180    0.3683    0.8371 C   0  0  0  0  0  0  0  0  0  0  0  0
    0.6443   -0.4370   -0.0179 C   0  0  0  0  0  0  0  0  0  0  0  0
    2.0887   -0.6339    0.1657 C   0  0  0  0  0  0  0  0  0  0  0  0
    2.9376    0.3256    0.5668 C   0  0  0  0  0  0  0  0  0  0  0  0
    4.4066    0.1117    0.7388 C   0  0  0  0  0  0  0  0  0  0  0  0
   -0.0073   -1.1217   -1.0488 C   0  0  0  0  0  0  0  0  0  0  0  0
   -1.3861   -0.9802   -1.2345 C   0  0  0  0  0  0  0  0  0  0  0  0
  1  2  1  0
  2  3  1  0
  3  4  2  0
  4  5  1  0
  5  6  2  0
  6  7  1  0
  7  8  2  3
  8  9  1  0
  6 10  1  0
 10 11  2  0
 11  3  1  0
M  END
>  <target>  (316) 
-3.13

$$$$

     RDKit          3D

 17 16  0  0  0  0  0  0  0  0999 V2000
    6.6280    1.8510    1.1667 C   0  0  0  0  0  0  0  0  0  0  0  0
    6.6321    0.5468    0.3850 C   0  0  0  0  0  0  0  0  0  0  0  0
    5.9895   -0.6205    1.1381 C   0  0  0  0  0  0  0  0  0  0  0  0
    4.5231   -0.4282    1.5370 C   0  0  0  0  0  0  0  0  0  0  0  0
    3.5906   -0.2089    0.3428 C   0  0  0  0  0  0  0  0  0  0  0  0
    2.1278   -0.1450    0.7908 C   0  0  0  0  0  0  0  0  0  0  0  0
    1.1555    0.1992   -0.3425 C   0  0  0  0  0  0  0  0  0  0  0  0
    1.0519   -0.8960   -1.4068 C   0  0  0  0  0  0  0  0  0  0  0  0
    0.0852   -0.5501   -2.5452 C   0  0  0  0  0  0  0  0  0  0  0  0
   -1.3721   -0.3084   -2.1372 C   0  0  0  0  0  0  0  0  0  0  0  0
   -2.0110   -1.5075   -1.4325 C   0  0  0  0  0  0  0  0  0  0  0  0
   -3.5194   -1.3495   -1.2160 C   0  0  0  0  0  0  0  0  0  0  0  0
   -3.8782   -0.2175   -0.2506 C   0  0  0  0  0  0  0  0  0  0  0  0
   -5.3844   -0.1761    0.0194 C   0  0  0  0  0  0  0  0  0  0  0  0
   -5.7451    0.9594    0.9815 C   0  0  0  0  0  0  0  0  0  0  0  0
   -7.2458    1.0419    1.2380 C   0  0  0  0  0  0  0  0  0  0  0  0
   -7.7194   -0.1419    1.8644 O   0  0  0  0  0  0  0  0  0  0  0  0
  1  2  1  0
  2  3  1  0
  3  4  1  0
  4  5  1  0
  5  6  1  0
  6  7  1  0
  7  8  1  0
  8  9  1  0
  9 10  1  0
 10 11  1  0
 11 12  1  0
 12 13  1  0
 13 14  1  0
 14 15  1  0
 15 16  1  0
 16 17  1  0
M  END
>  <target>  (317) 
-7.0

$$$$

     RDKit          3D

  8  8  0  0  0  0  0  0  0  0999 V2000
    2.6203   -0.2311   -0.0892 O   0  0  0  0  0  0  0  0  0  0  0  0
    1.4010   -0.1172   -0.0471 C   0  0  0  0  0  0  0  0  0  0  0  0
    0.5245   -1.3022   -0.1437 C   0  0  0  0  0  0  0  0  0  0  0  0
   -0.7980   -1.1273   -0.0928 C   0  0  0  0  0  0  0  0  0  0  0  0
   -1.3352    0.1215    0.0458 N   0  0  0  0  0  0  0  0  0  0  0  0
   -0.5854    1.2637    0.1414 C   0  0  0  0  0  0  0  0  0  0  0  0
   -1.1002    2.3696    0.2652 O   0  0  0  0  0  0  0  0  0  0  0  0
    0.7685    1.0864    0.0895 N   0  0  0  0  0  0  0  0  0  0  0  0
  1  2  2  0
  2  3  1  0
  3  4  2  0
  4  5  1  0
  5  6  1  0
  6  7  2  0
  6  8  1  0
  8  2  1  0
M  END
>  <target>  (318) 
-1.4880000000000002

$$$$

     RDKit          3D

 10 11  0  0  0  0  0  0  0  0999 V2000
   -1.7479   -1.5166    0.4352 N   0  0  0  0  0  0  0  0  0  0  0  0
   -1.1028   -0.3133    0.1991 C   0  0  0  0  0  0  0  0  0  0  0  0
   -1.8422    0.8023    0.0972 N   0  0  0  0  0  0  0  0  0  0  0  0
   -1.2100    1.9703   -0.1514 C   0  0  0  0  0  0  0  0  0  0  0  0
    0.1010    2.1828   -0.3243 N   0  0  0  0  0  0  0  0  0  0  0  0
    0.8221    1.0543   -0.2079 C   0  0  0  0  0  0  0  0  0  0  0  0
    2.1840    0.9624   -0.3228 N   0  0  0  0  0  0  0  0  0  0  0  0
    2.4571   -0.3072   -0.1181 C   0  0  0  0  0  0  0  0  0  0  0  0
    1.3244   -1.0382    0.1152 N   0  0  0  0  0  0  0  0  0  0  0  0
    0.2608   -0.1829    0.0493 C   0  0  0  0  0  0  0  0  0  0  0  0
  1  2  1  0
  2  3  2  0
  3  4  1  0
  4  5  2  0
  5  6  1  0
  6  7  1  0
  7  8  2  0
  8  9  1  0
  9 10  1  0
 10  2  1  0
 10  6  2  0
M  END
>  <target>  (319) 
-2.12

$$$$

     RDKit          3D

 17 18  0  0  0  0  0  0  0  0999 V2000
   -5.1953   -0.0992    0.7956 Cl  0  0  0  0  0  0  0  0  0  0  0  0
   -3.4893   -0.0320    0.5325 C   0  0  0  0  0  0  0  0  0  0  0  0
   -2.8509   -1.2004    0.1121 C   0  0  0  0  0  0  0  0  0  0  0  0
   -1.4721   -1.2025   -0.1187 C   0  0  0  0  0  0  0  0  0  0  0  0
   -0.7512   -2.6838   -0.6469 Cl  0  0  0  0  0  0  0  0  0  0  0  0
   -0.7063   -0.0363    0.0690 C   0  0  0  0  0  0  0  0  0  0  0  0
   -1.3675    1.1325    0.4899 C   0  0  0  0  0  0  0  0  0  0  0  0
   -2.7475    1.1376    0.7216 C   0  0  0  0  0  0  0  0  0  0  0  0
   -3.4692    2.6204    1.2349 Cl  0  0  0  0  0  0  0  0  0  0  0  0
    0.7498    0.0040   -0.1561 C   0  0  0  0  0  0  0  0  0  0  0  0
    1.2275    0.3725   -1.4284 C   0  0  0  0  0  0  0  0  0  0  0  0
    2.5950    0.4236   -1.6970 C   0  0  0  0  0  0  0  0  0  0  0  0
    3.5105    0.1085   -0.6965 C   0  0  0  0  0  0  0  0  0  0  0  0
    3.0625   -0.2577    0.5758 C   0  0  0  0  0  0  0  0  0  0  0  0
    4.2674   -0.6283    1.7610 Cl  0  0  0  0  0  0  0  0  0  0  0  0
    1.6869   -0.3111    0.8537 C   0  0  0  0  0  0  0  0  0  0  0  0
    1.1254   -0.7559    2.4387 Cl  0  0  0  0  0  0  0  0  0  0  0  0
  1  2  1  0
  2  3  2  0
  3  4  1  0
  4  5  1  0
  4  6  2  0
  6  7  1  0
  7  8  2  0
  8  9  1  0
  6 10  1  0
 10 11  2  0
 11 12  1  0
 12 13  2  0
 13 14  1  0
 14 15  1  0
 14 16  2  0
 16 17  1  0
  8  2  1  0
 16 10  1  0
M  END
>  <target>  (320) 
-7.21

$$$$

     RDKit          3D

 19 21  0  0  0  0  0  0  0  0999 V2000
    4.7413   -2.5252    0.6963 C   0  0  0  0  0  0  0  0  0  0  0  0
    4.3608   -1.3314    0.0234 O   0  0  0  0  0  0  0  0  0  0  0  0
    3.0695   -0.9151    0.1887 C   0  0  0  0  0  0  0  0  0  0  0  0
    2.7271    0.2296   -0.5312 C   0  0  0  0  0  0  0  0  0  0  0  0
    1.4367    0.7670   -0.4608 C   0  0  0  0  0  0  0  0  0  0  0  0
    0.4512    0.1679    0.3378 C   0  0  0  0  0  0  0  0  0  0  0  0
    0.8168   -0.9840    1.0657 C   0  0  0  0  0  0  0  0  0  0  0  0
    2.1077   -1.5205    0.9918 C   0  0  0  0  0  0  0  0  0  0  0  0
   -0.9874    0.6981    0.4598 C   0  0  0  0  0  0  0  0  0  0  0  0
   -1.2006    0.9564    1.8557 O   0  0  0  0  0  0  0  0  0  0  0  0
   -1.2069    1.9990   -0.3066 C   0  0  0  0  0  0  0  0  0  0  0  0
   -0.7936    3.3524    0.2368 C   0  0  0  0  0  0  0  0  0  0  0  0
   -2.2519    3.0082    0.1247 C   0  0  0  0  0  0  0  0  0  0  0  0
   -2.0257   -0.2973   -0.0177 C   0  0  0  0  0  0  0  0  0  0  0  0
   -1.8947   -1.0150   -1.1951 C   0  0  0  0  0  0  0  0  0  0  0  0
   -2.8109   -1.8892   -1.6609 N   0  0  0  0  0  0  0  0  0  0  0  0
   -3.9068   -2.0378   -0.9039 C   0  0  0  0  0  0  0  0  0  0  0  0
   -4.1613   -1.3989    0.2459 N   0  0  0  0  0  0  0  0  0  0  0  0
   -3.2081   -0.5358    0.6591 C   0  0  0  0  0  0  0  0  0  0  0  0
  1  2  1  0
  2  3  1  0
  3  4  2  0
  4  5  1  0
  5  6  2  0
  6  7  1  0
  7  8  2  0
  6  9  1  0
  9 10  1  0
  9 11  1  0
 11 12  1  0
 12 13  1  0
  9 14  1  0
 14 15  2  0
 15 16  1  0
 16 17  2  0
 17 18  1  0
 18 19  2  0
  8  3  1  0
 13 11  1  0
 19 14  1  0
M  END
>  <target>  (321) 
-2.596

$$$$

     RDKit          3D

 20 24  0  0  0  0  0  0  0  0999 V2000
   -4.6257    0.5720   -0.4298 C   0  0  0  0  0  0  0  0  0  0  0  0
   -4.0500    1.8507   -0.5588 C   0  0  0  0  0  0  0  0  0  0  0  0
   -2.6654    2.0301   -0.4776 C   0  0  0  0  0  0  0  0  0  0  0  0
   -1.8812    0.9114   -0.2666 C   0  0  0  0  0  0  0  0  0  0  0  0
   -2.4620   -0.3788   -0.1364 C   0  0  0  0  0  0  0  0  0  0  0  0
   -3.8303   -0.5583   -0.2164 C   0  0  0  0  0  0  0  0  0  0  0  0
   -1.3686   -1.3177    0.0738 C   0  0  0  0  0  0  0  0  0  0  0  0
   -1.3407   -2.6862    0.2609 C   0  0  0  0  0  0  0  0  0  0  0  0
   -0.0958   -3.3044    0.4394 C   0  0  0  0  0  0  0  0  0  0  0  0
    1.1022   -2.5552    0.4294 C   0  0  0  0  0  0  0  0  0  0  0  0
    1.0961   -1.1479    0.2387 C   0  0  0  0  0  0  0  0  0  0  0  0
   -0.1760   -0.6005    0.0678 C   0  0  0  0  0  0  0  0  0  0  0  0
   -0.4402    0.7442   -0.1341 C   0  0  0  0  0  0  0  0  0  0  0  0
    0.6082    1.6422   -0.1756 C   0  0  0  0  0  0  0  0  0  0  0  0
    1.9279    1.1715   -0.0114 C   0  0  0  0  0  0  0  0  0  0  0  0
    2.9958    2.0808   -0.0530 C   0  0  0  0  0  0  0  0  0  0  0  0
    4.3131    1.6523    0.1053 C   0  0  0  0  0  0  0  0  0  0  0  0
    4.5837    0.3052    0.3081 C   0  0  0  0  0  0  0  0  0  0  0  0
    3.5377   -0.6193    0.3533 C   0  0  0  0  0  0  0  0  0  0  0  0
    2.1925   -0.2222    0.1971 C   0  0  0  0  0  0  0  0  0  0  0  0
  1  2  2  0
  2  3  1  0
  3  4  2  0
  4  5  1  0
  5  6  2  0
  5  7  1  0
  7  8  2  0
  8  9  1  0
  9 10  2  0
 10 11  1  0
 11 12  1  0
 12 13  2  0
 13 14  1  0
 14 15  2  0
 15 16  1  0
 16 17  2  0
 17 18  1  0
 18 19  2  0
 19 20  1  0
  6  1  1  0
 13  4  1  0
 12  7  1  0
 20 11  2  0
 20 15  1  0
M  END
>  <target>  (322) 
-8.23

$$$$

     RDKit          3D

 16 17  0  0  0  0  0  0  0  0999 V2000
   -0.0128    1.3484    0.0178 O   0  0  0  0  0  0  0  0  0  0  0  0
   -0.0012    0.1294    0.1220 C   0  0  0  0  0  0  0  0  0  0  0  0
    1.1416   -0.6492    0.2490 N   0  0  0  0  0  0  0  0  0  0  0  0
    2.4839   -0.2226    0.1706 C   0  0  0  0  0  0  0  0  0  0  0  0
    3.4739   -1.1551    0.5091 C   0  0  0  0  0  0  0  0  0  0  0  0
    4.8277   -0.8131    0.4475 C   0  0  0  0  0  0  0  0  0  0  0  0
    5.2047    0.4640    0.0418 C   0  0  0  0  0  0  0  0  0  0  0  0
    4.2285    1.3949   -0.3042 C   0  0  0  0  0  0  0  0  0  0  0  0
    2.8738    1.0524   -0.2426 C   0  0  0  0  0  0  0  0  0  0  0  0
   -1.1288   -0.6809    0.1306 N   0  0  0  0  0  0  0  0  0  0  0  0
   -2.4791   -0.2728    0.1349 C   0  0  0  0  0  0  0  0  0  0  0  0
   -2.8944    1.0465    0.3239 C   0  0  0  0  0  0  0  0  0  0  0  0
   -4.2555    1.3685    0.3252 C   0  0  0  0  0  0  0  0  0  0  0  0
   -5.2128    0.3738    0.1429 C   0  0  0  0  0  0  0  0  0  0  0  0
   -4.8103   -0.9463   -0.0382 C   0  0  0  0  0  0  0  0  0  0  0  0
   -3.4503   -1.2680   -0.0396 C   0  0  0  0  0  0  0  0  0  0  0  0
  1  2  2  0
  2  3  1  0
  3  4  1  0
  4  5  2  0
  5  6  1  0
  6  7  2  0
  7  8  1  0
  8  9  2  0
  2 10  1  0
 10 11  1  0
 11 12  2  0
 12 13  1  0
 13 14  2  0
 14 15  1  0
 15 16  2  0
  9  4  1  0
 16 11  1  0
M  END
>  <target>  (323) 
-3.15

$$$$

     RDKit          3D

 17 18  0  0  0  0  0  0  0  0999 V2000
   -1.1862    1.9159    2.1892 C   0  0  0  0  0  0  0  0  0  0  0  0
   -0.0662    1.4510    1.2591 C   0  0  0  0  0  0  0  0  0  0  0  0
   -0.4181    0.2358    0.3557 C   0  0  0  0  0  0  0  0  0  0  0  0
   -0.7849   -0.9839    1.2147 C   0  0  0  0  0  0  0  0  0  0  0  0
   -0.3954   -1.1618    2.3682 O   0  0  0  0  0  0  0  0  0  0  0  0
   -1.5551   -1.9390    0.6081 N   0  0  0  0  0  0  0  0  0  0  0  0
   -2.4613   -1.6703   -0.3666 C   0  0  0  0  0  0  0  0  0  0  0  0
   -3.4188   -2.4096   -0.5698 O   0  0  0  0  0  0  0  0  0  0  0  0
   -2.3202   -0.4965   -1.0342 N   0  0  0  0  0  0  0  0  0  0  0  0
   -1.6093    0.5703   -0.5548 C   0  0  0  0  0  0  0  0  0  0  0  0
   -1.9185    1.7098   -0.9012 O   0  0  0  0  0  0  0  0  0  0  0  0
    0.8447   -0.0682   -0.4996 C   0  0  0  0  0  0  0  0  0  0  0  0
    1.8517   -0.9350   -0.0317 C   0  0  0  0  0  0  0  0  0  0  0  0
    2.9938   -1.1945   -0.7941 C   0  0  0  0  0  0  0  0  0  0  0  0
    3.1641   -0.5809   -2.0305 C   0  0  0  0  0  0  0  0  0  0  0  0
    2.1991    0.3038   -2.4999 C   0  0  0  0  0  0  0  0  0  0  0  0
    1.0558    0.5653   -1.7399 C   0  0  0  0  0  0  0  0  0  0  0  0
  1  2  1  0
  2  3  1  0
  3  4  1  0
  4  5  2  0
  4  6  1  0
  6  7  1  0
  7  8  2  0
  7  9  1  0
  9 10  1  0
 10 11  2  0
  3 12  1  0
 12 13  2  0
 13 14  1  0
 14 15  2  0
 15 16  1  0
 16 17  2  0
 10  3  1  0
 17 12  1  0
M  END
>  <target>  (324) 
-2.322

$$$$

     RDKit          3D

 15 16  0  0  0  0  0  0  0  0999 V2000
    5.0853   -0.9196    0.9577 Cl  0  0  0  0  0  0  0  0  0  0  0  0
    3.4157   -0.6180    0.6728 C   0  0  0  0  0  0  0  0  0  0  0  0
    2.4684   -1.0326    1.6058 C   0  0  0  0  0  0  0  0  0  0  0  0
    1.1120   -0.7886    1.3733 C   0  0  0  0  0  0  0  0  0  0  0  0
    0.6924   -0.1268    0.2081 C   0  0  0  0  0  0  0  0  0  0  0  0
    1.6626    0.2813   -0.7215 C   0  0  0  0  0  0  0  0  0  0  0  0
    3.0193    0.0379   -0.4901 C   0  0  0  0  0  0  0  0  0  0  0  0
   -0.7350    0.1227   -0.0388 C   0  0  0  0  0  0  0  0  0  0  0  0
   -1.4959   -0.8893   -0.6554 C   0  0  0  0  0  0  0  0  0  0  0  0
   -2.8541   -0.7133   -0.9177 C   0  0  0  0  0  0  0  0  0  0  0  0
   -3.4775    0.4808   -0.5671 C   0  0  0  0  0  0  0  0  0  0  0  0
   -2.7453    1.5013    0.0469 C   0  0  0  0  0  0  0  0  0  0  0  0
   -3.6000    2.9515    0.4495 Cl  0  0  0  0  0  0  0  0  0  0  0  0
   -1.3766    1.3306    0.3142 C   0  0  0  0  0  0  0  0  0  0  0  0
   -0.4681    2.5989    1.0830 Cl  0  0  0  0  0  0  0  0  0  0  0  0
  1  2  1  0
  2  3  2  0
  3  4  1  0
  4  5  2  0
  5  6  1  0
  6  7  2  0
  5  8  1  0
  8  9  2  0
  9 10  1  0
 10 11  2  0
 11 12  1  0
 12 13  1  0
 12 14  2  0
 14 15  1  0
  7  2  1  0
 14  8  1  0
M  END
>  <target>  (325) 
-6.29

$$$$

     RDKit          3D

 15 15  0  0  0  0  0  0  0  0999 V2000
   -4.5090   -0.4917    1.0757 C   0  0  0  0  0  0  0  0  0  0  0  0
   -3.8400   -0.1467   -0.2572 C   0  0  0  0  0  0  0  0  0  0  0  0
   -4.4153    1.1479   -0.8370 C   0  0  0  0  0  0  0  0  0  0  0  0
   -2.3299   -0.0738   -0.1212 C   0  0  0  0  0  0  0  0  0  0  0  0
   -1.7066    0.8616    0.7146 C   0  0  0  0  0  0  0  0  0  0  0  0
   -0.3124    0.9056    0.8226 C   0  0  0  0  0  0  0  0  0  0  0  0
    0.4892    0.0126    0.1039 C   0  0  0  0  0  0  0  0  0  0  0  0
    1.8861    0.1298    0.2519 N   0  0  0  0  0  0  0  0  0  0  0  0
    2.8495   -0.7636   -0.1612 C   0  0  0  0  0  0  0  0  0  0  0  0
    2.6216   -1.8965   -0.5773 O   0  0  0  0  0  0  0  0  0  0  0  0
    4.1577   -0.2805   -0.0331 N   0  0  0  0  0  0  0  0  0  0  0  0
    5.2278   -1.2146   -0.3421 C   0  0  0  0  0  0  0  0  0  0  0  0
    4.5071    1.1281   -0.1661 C   0  0  0  0  0  0  0  0  0  0  0  0
   -0.1256   -0.9131   -0.7377 C   0  0  0  0  0  0  0  0  0  0  0  0
   -1.5208   -0.9583   -0.8465 C   0  0  0  0  0  0  0  0  0  0  0  0
  1  2  1  0
  2  3  1  0
  2  4  1  0
  4  5  2  0
  5  6  1  0
  6  7  2  0
  7  8  1  0
  8  9  1  0
  9 10  2  0
  9 11  1  0
 11 12  1  0
 11 13  1  0
  7 14  1  0
 14 15  2  0
 15  4  1  0
M  END
>  <target>  (326) 
-3.536

$$$$

     RDKit          3D

 16 16  0  0  0  0  0  0  0  0999 V2000
   -2.6992   -2.5517   -0.0326 C   0  0  0  0  0  0  0  0  0  0  0  0
   -1.9315   -1.3854   -0.6350 C   0  0  0  0  0  0  0  0  0  0  0  0
   -1.3939   -0.4982    0.3971 N   0  0  0  0  0  0  0  0  0  0  0  0
   -2.2436    0.6139    0.8266 C   0  0  0  0  0  0  0  0  0  0  0  0
   -2.0710    1.8372   -0.0603 C   0  0  0  0  0  0  0  0  0  0  0  0
   -0.1255   -0.7777    0.9109 C   0  0  0  0  0  0  0  0  0  0  0  0
    0.4989   -1.7808    0.5531 O   0  0  0  0  0  0  0  0  0  0  0  0
    0.4336    0.1864    1.9595 C   0  0  0  0  0  0  0  0  0  0  0  0
    2.2511    0.0895    2.0941 S   0  0  0  0  0  0  0  0  0  0  0  0
    2.6829    0.5601    0.4346 C   0  0  0  0  0  0  0  0  0  0  0  0
    3.7619   -0.0351   -0.2010 C   0  0  0  0  0  0  0  0  0  0  0  0
    4.0772    0.3590   -1.4987 C   0  0  0  0  0  0  0  0  0  0  0  0
    3.2977    1.3345   -2.0849 C   0  0  0  0  0  0  0  0  0  0  0  0
    3.5976    1.8891   -3.6755 Cl  0  0  0  0  0  0  0  0  0  0  0  0
    2.2600    1.9155   -1.4522 N   0  0  0  0  0  0  0  0  0  0  0  0
    1.9540    1.5241   -0.1740 N   0  0  0  0  0  0  0  0  0  0  0  0
  1  2  1  0
  2  3  1  0
  3  4  1  0
  4  5  1  0
  3  6  1  0
  6  7  2  0
  6  8  1  0
  8  9  1  0
  9 10  1  0
 10 11  2  0
 11 12  1  0
 12 13  2  0
 13 14  1  0
 13 15  1  0
 15 16  2  0
 16 10  1  0
M  END
>  <target>  (327) 
-1.716

$$$$

     RDKit          3D

  7  6  0  0  0  0  0  0  0  0999 V2000
   -1.7241   -1.3461    0.1713 C   0  0  0  0  0  0  0  0  0  0  0  0
   -0.8503   -0.3217    0.8850 C   0  0  0  0  0  0  0  0  0  0  0  0
    0.1983    0.4024   -0.0030 C   0  0  0  0  0  0  0  0  0  0  0  0
    0.9969    1.3627    0.9044 C   0  0  0  0  0  0  0  0  0  0  0  0
   -0.4934    1.2360   -1.0965 C   0  0  0  0  0  0  0  0  0  0  0  0
    1.1738   -0.5867   -0.6766 C   0  0  0  0  0  0  0  0  0  0  0  0
    1.8069   -1.4150    0.2899 O   0  0  0  0  0  0  0  0  0  0  0  0
  1  2  1  0
  2  3  1  0
  3  4  1  0
  3  5  1  0
  3  6  1  0
  6  7  1  0
M  END
>  <target>  (328) 
-1.04

$$$$

     RDKit          3D

  9  8  0  0  0  0  0  0  0  0999 V2000
    3.4765    1.4118    0.4795 C   0  0  0  0  0  0  0  0  0  0  0  0
    1.9893    1.1311    0.5992 C   0  0  0  0  0  0  0  0  0  0  0  0
    1.7194   -0.2956    1.0645 C   0  0  0  0  0  0  0  0  0  0  0  0
    0.3064   -0.5045    1.2154 O   0  0  0  0  0  0  0  0  0  0  0  0
   -0.3607   -0.8850    0.0886 C   0  0  0  0  0  0  0  0  0  0  0  0
    0.1506   -1.0639   -1.0072 O   0  0  0  0  0  0  0  0  0  0  0  0
   -1.8242   -1.0795    0.4151 C   0  0  0  0  0  0  0  0  0  0  0  0
   -2.7131   -1.1327   -0.8259 C   0  0  0  0  0  0  0  0  0  0  0  0
   -2.8612    0.2252   -1.4982 C   0  0  0  0  0  0  0  0  0  0  0  0
  1  2  1  0
  2  3  1  0
  3  4  1  0
  4  5  1  0
  5  6  2  0
  5  7  1  0
  7  8  1  0
  8  9  1  0
M  END
>  <target>  (329) 
-1.75

$$$$

     RDKit          3D

 16 16  0  0  0  0  0  0  0  0999 V2000
   -2.4753   -0.0891   -0.0219 C   0  0  0  0  0  0  0  0  0  0  0  0
   -0.9688   -0.0350   -0.0119 C   0  0  0  0  0  0  0  0  0  0  0  0
   -0.1803   -1.2042    0.0313 C   0  0  0  0  0  0  0  0  0  0  0  0
    1.2244   -1.1717    0.0062 C   0  0  0  0  0  0  0  0  0  0  0  0
    1.8738    0.0662   -0.0396 C   0  0  0  0  0  0  0  0  0  0  0  0
    1.1376    1.2553   -0.0488 C   0  0  0  0  0  0  0  0  0  0  0  0
   -0.2660    1.1884   -0.0229 C   0  0  0  0  0  0  0  0  0  0  0  0
   -0.9792    2.4602    0.0023 N   0  0  0  0  0  0  0  0  0  0  0  0
   -0.7357    3.2532   -0.9146 O   0  0  0  0  0  0  0  0  0  0  0  0
   -1.7554    2.6516    0.9454 O   0  0  0  0  0  0  0  0  0  0  0  0
    3.3420    0.1183   -0.0610 N   0  0  0  0  0  0  0  0  0  0  0  0
    3.8734    1.2353   -0.0921 O   0  0  0  0  0  0  0  0  0  0  0  0
    3.9519   -0.9582   -0.0423 O   0  0  0  0  0  0  0  0  0  0  0  0
   -0.8009   -2.5212    0.1152 N   0  0  0  0  0  0  0  0  0  0  0  0
   -0.4998   -3.3355   -0.7652 O   0  0  0  0  0  0  0  0  0  0  0  0
   -1.5630   -2.7248    1.0672 O   0  0  0  0  0  0  0  0  0  0  0  0
  1  2  1  0
  2  3  2  0
  3  4  1  0
  4  5  2  0
  5  6  1  0
  6  7  2  0
  7  8  1  0
  8  9  1  0
  8 10  2  0
  5 11  1  0
 11 12  1  0
 11 13  2  0
  3 14  1  0
 14 15  1  0
 14 16  2  0
  7  2  1  0
M  CHG  6   8   1   9  -1  11   1  12  -1  14   1  15  -1
M  END
>  <target>  (330) 
-3.22

$$$$

     RDKit          3D

 23 23  0  0  0  0  0  0  0  0999 V2000
   -4.0580   -1.2833   -0.1951 C   0  0  0  0  0  0  0  0  0  0  0  0
   -3.3562   -0.1179    0.4893 C   0  0  0  0  0  0  0  0  0  0  0  0
   -3.5466    1.1642   -0.3095 C   0  0  0  0  0  0  0  0  0  0  0  0
   -1.9644   -0.4111    0.5493 O   0  0  0  0  0  0  0  0  0  0  0  0
   -1.2344   -0.6016    1.9896 P   0  0  0  0  0  0  0  0  0  0  0  0
   -1.9894   -2.0336    3.0796 S   0  0  0  0  0  0  0  0  0  0  0  0
    0.2710   -0.9463    1.4820 O   0  0  0  0  0  0  0  0  0  0  0  0
    0.4944   -2.0641    0.6287 C   0  0  0  0  0  0  0  0  0  0  0  0
    1.5469   -2.9521    1.2750 C   0  0  0  0  0  0  0  0  0  0  0  0
    0.9753   -1.5362   -0.7162 C   0  0  0  0  0  0  0  0  0  0  0  0
   -1.0826    1.3172    2.8582 S   0  0  0  0  0  0  0  0  0  0  0  0
   -0.3041    2.3482    1.5826 C   0  0  0  0  0  0  0  0  0  0  0  0
    1.2163    2.2090    1.5830 C   0  0  0  0  0  0  0  0  0  0  0  0
    1.8831    3.0719    0.5925 N   0  0  0  0  0  0  0  0  0  0  0  0
    1.5620    2.9607   -1.0543 S   0  0  0  0  0  0  0  0  0  0  0  0
    0.1794    3.3237   -1.2696 O   0  0  0  0  0  0  0  0  0  0  0  0
    2.6415    3.6525   -1.7221 O   0  0  0  0  0  0  0  0  0  0  0  0
    1.7425    1.2258   -1.3741 C   0  0  0  0  0  0  0  0  0  0  0  0
    3.0228    0.6766   -1.4916 C   0  0  0  0  0  0  0  0  0  0  0  0
    3.1623   -0.6974   -1.6861 C   0  0  0  0  0  0  0  0  0  0  0  0
    2.0284   -1.5113   -1.7498 C   0  0  0  0  0  0  0  0  0  0  0  0
    0.7512   -0.9542   -1.6463 C   0  0  0  0  0  0  0  0  0  0  0  0
    0.6051    0.4228   -1.4910 C   0  0  0  0  0  0  0  0  0  0  0  0
  1  2  1  0
  2  3  1  0
  2  4  1  0
  4  5  1  0
  5  6  2  0
  5  7  1  0
  7  8  1  0
  8  9  1  0
  8 10  1  0
  5 11  1  0
 11 12  1  0
 12 13  1  0
 13 14  1  0
 14 15  1  0
 15 16  2  0
 15 17  2  0
 15 18  1  0
 18 19  2  0
 19 20  1  0
 20 21  2  0
 21 22  1  0
 22 23  2  0
 23 18  1  0
M  END
>  <target>  (331) 
-4.2

$$$$

     RDKit          3D

  7  7  0  0  0  0  0  0  0  0999 V2000
   -0.0233   -1.5720    0.4858 C   0  0  0  0  0  0  0  0  0  0  0  0
    1.3387   -1.1139   -0.0273 C   0  0  0  0  0  0  0  0  0  0  0  0
    1.4841    0.3566   -0.4079 C   0  0  0  0  0  0  0  0  0  0  0  0
    0.7567    1.3386    0.5049 C   0  0  0  0  0  0  0  0  0  0  0  0
   -0.6999    1.5554    0.0987 C   0  0  0  0  0  0  0  0  0  0  0  0
   -1.6378    0.3897    0.3930 C   0  0  0  0  0  0  0  0  0  0  0  0
   -1.2252   -0.9488   -0.2168 C   0  0  0  0  0  0  0  0  0  0  0  0
  1  2  1  0
  2  3  1  0
  3  4  1  0
  4  5  1  0
  5  6  1  0
  6  7  1  0
  7  1  1  0
M  END
>  <target>  (332) 
-3.51

$$$$

     RDKit          3D

  6  5  0  0  0  0  0  0  0  0999 V2000
   -2.0848   -0.3727   -0.1521 C   0  0  0  0  0  0  0  0  0  0  0  0
   -0.6528   -0.8398    0.0367 C   0  0  0  0  0  0  0  0  0  0  0  0
    0.3281    0.3263    0.0430 C   0  0  0  0  0  0  0  0  0  0  0  0
    1.6480   -0.2035    0.2251 O   0  0  0  0  0  0  0  0  0  0  0  0
    2.6228    0.7386    0.2494 C   0  0  0  0  0  0  0  0  0  0  0  0
    2.4745    1.9442    0.1341 O   0  0  0  0  0  0  0  0  0  0  0  0
  1  2  1  0
  2  3  1  0
  3  4  1  0
  4  5  1  0
  5  6  2  0
M  END
>  <target>  (333) 
-0.49

$$$$

     RDKit          3D

 10 10  0  0  0  0  0  0  0  0999 V2000
   -1.7364   -0.1939    1.7308 C   0  0  0  0  0  0  0  0  0  0  0  0
   -1.3555    0.1769    0.2940 C   0  0  0  0  0  0  0  0  0  0  0  0
   -2.3040   -0.4851   -0.7104 C   0  0  0  0  0  0  0  0  0  0  0  0
    0.1013   -0.1605   -0.0044 C   0  0  0  0  0  0  0  0  0  0  0  0
    0.5275   -1.5026    0.0566 C   0  0  0  0  0  0  0  0  0  0  0  0
    1.8500   -1.8579   -0.2085 C   0  0  0  0  0  0  0  0  0  0  0  0
    2.7760   -0.8780   -0.5407 C   0  0  0  0  0  0  0  0  0  0  0  0
    2.3785    0.4559   -0.6073 C   0  0  0  0  0  0  0  0  0  0  0  0
    1.0491    0.8317   -0.3431 C   0  0  0  0  0  0  0  0  0  0  0  0
    0.6890    2.2902   -0.4333 C   0  0  0  0  0  0  0  0  0  0  0  0
  1  2  1  0
  2  3  1  0
  2  4  1  0
  4  5  2  0
  5  6  1  0
  6  7  2  0
  7  8  1  0
  8  9  2  0
  9 10  1  0
  9  4  1  0
M  END
>  <target>  (334) 
-3.76

$$$$

     RDKit          3D

  8  8  0  0  0  0  0  0  0  0999 V2000
   -2.2382   -0.4975   -0.4798 N   0  0  0  0  0  0  0  0  0  0  0  0
   -0.9192   -0.1805   -0.1345 C   0  0  0  0  0  0  0  0  0  0  0  0
   -0.4933    1.1516   -0.1380 C   0  0  0  0  0  0  0  0  0  0  0  0
    0.8472    1.4762    0.0882 C   0  0  0  0  0  0  0  0  0  0  0  0
    1.7844    0.4633    0.2793 C   0  0  0  0  0  0  0  0  0  0  0  0
    1.3761   -0.8670    0.2237 C   0  0  0  0  0  0  0  0  0  0  0  0
    2.5365   -2.1234    0.4219 Cl  0  0  0  0  0  0  0  0  0  0  0  0
    0.0371   -1.1903   -0.0021 C   0  0  0  0  0  0  0  0  0  0  0  0
  1  2  1  0
  2  3  2  0
  3  4  1  0
  4  5  2  0
  5  6  1  0
  6  7  1  0
  6  8  2  0
  8  2  1  0
M  END
>  <target>  (335) 
-1.37

$$$$

     RDKit          3D

  7  6  0  0  0  0  0  0  0  0999 V2000
   -1.6130   -0.2252    1.2531 C   0  0  0  0  0  0  0  0  0  0  0  0
   -1.2659    0.3472   -0.1216 C   0  0  0  0  0  0  0  0  0  0  0  0
   -2.4664    0.1960   -1.0610 C   0  0  0  0  0  0  0  0  0  0  0  0
   -0.0296   -0.3293   -0.7473 C   0  0  0  0  0  0  0  0  0  0  0  0
    1.2760   -0.2355    0.0679 C   0  0  0  0  0  0  0  0  0  0  0  0
    2.3962   -0.9789   -0.6663 C   0  0  0  0  0  0  0  0  0  0  0  0
    1.7014    1.2101    0.3269 C   0  0  0  0  0  0  0  0  0  0  0  0
  1  2  1  0
  2  3  1  0
  2  4  1  0
  4  5  1  0
  5  6  1  0
  5  7  1  0
M  END
>  <target>  (336) 
-4.26

$$$$

     RDKit          3D

 13 15  0  0  0  0  0  0  0  0999 V2000
   -0.0764    1.7492    0.2777 O   0  0  0  0  0  0  0  0  0  0  0  0
   -1.1318    0.9154    0.0666 C   0  0  0  0  0  0  0  0  0  0  0  0
   -2.4696    1.3034    0.0330 C   0  0  0  0  0  0  0  0  0  0  0  0
   -3.4087    0.2930   -0.1982 C   0  0  0  0  0  0  0  0  0  0  0  0
   -3.0112   -1.0335   -0.3844 C   0  0  0  0  0  0  0  0  0  0  0  0
   -1.6565   -1.3941   -0.3451 C   0  0  0  0  0  0  0  0  0  0  0  0
   -0.6942   -0.3927   -0.1136 C   0  0  0  0  0  0  0  0  0  0  0  0
    0.7266   -0.3480   -0.0040 C   0  0  0  0  0  0  0  0  0  0  0  0
    1.7735   -1.2863   -0.0804 C   0  0  0  0  0  0  0  0  0  0  0  0
    3.0931   -0.8416    0.0867 C   0  0  0  0  0  0  0  0  0  0  0  0
    3.3738    0.5062    0.3251 C   0  0  0  0  0  0  0  0  0  0  0  0
    2.3491    1.4548    0.4049 C   0  0  0  0  0  0  0  0  0  0  0  0
    1.0488    0.9840    0.2349 C   0  0  0  0  0  0  0  0  0  0  0  0
  1  2  1  0
  2  3  2  0
  3  4  1  0
  4  5  2  0
  5  6  1  0
  6  7  2  0
  7  8  1  0
  8  9  2  0
  9 10  1  0
 10 11  2  0
 11 12  1  0
 12 13  2  0
 13  1  1  0
  7  2  1  0
 13  8  1  0
M  END
>  <target>  (337) 
-4.6

$$$$

     RDKit          3D

 19 20  0  0  0  0  0  0  0  0999 V2000
   -5.6251   -0.0414   -0.7025 C   0  0  0  0  0  0  0  0  0  0  0  0
   -4.2231    0.0062   -1.2776 C   0  0  0  0  0  0  0  0  0  0  0  0
   -3.3004   -0.2620   -0.2263 O   0  0  0  0  0  0  0  0  0  0  0  0
   -1.9491   -0.2843   -0.6897 C   0  0  0  0  0  0  0  0  0  0  0  0
   -1.5282    1.0072   -1.2041 O   0  0  0  0  0  0  0  0  0  0  0  0
   -0.1858    1.0377   -0.9325 C   0  0  0  0  0  0  0  0  0  0  0  0
    0.6950    1.9392   -1.4893 C   0  0  0  0  0  0  0  0  0  0  0  0
    2.0378    1.8523   -1.1151 C   0  0  0  0  0  0  0  0  0  0  0  0
    2.4712    0.8803   -0.1928 C   0  0  0  0  0  0  0  0  0  0  0  0
    3.8150    0.9128    0.0870 O   0  0  0  0  0  0  0  0  0  0  0  0
    4.5458   -0.2194    1.0035 S   0  0  0  0  0  0  0  0  0  0  0  0
    6.1961    0.4104    0.8338 C   0  0  0  0  0  0  0  0  0  0  0  0
    4.4837   -1.5028    0.3333 O   0  0  0  0  0  0  0  0  0  0  0  0
    4.1441   -0.0588    2.3865 O   0  0  0  0  0  0  0  0  0  0  0  0
    1.5532   -0.0092    0.3739 C   0  0  0  0  0  0  0  0  0  0  0  0
    0.2225    0.0837   -0.0111 C   0  0  0  0  0  0  0  0  0  0  0  0
   -0.9749   -0.6811    0.4580 C   0  0  0  0  0  0  0  0  0  0  0  0
   -1.4225   -0.1644    1.8338 C   0  0  0  0  0  0  0  0  0  0  0  0
   -0.7668   -2.1957    0.5087 C   0  0  0  0  0  0  0  0  0  0  0  0
  1  2  1  0
  2  3  1  0
  3  4  1  0
  4  5  1  0
  5  6  1  0
  6  7  2  0
  7  8  1  0
  8  9  2  0
  9 10  1  0
 10 11  1  0
 11 12  1  0
 11 13  2  0
 11 14  2  0
  9 15  1  0
 15 16  2  0
 16 17  1  0
 17 18  1  0
 17 19  1  0
 16  6  1  0
 17  4  1  0
M  END
>  <target>  (338) 
-3.42

$$$$

     RDKit          3D

 16 16  0  0  0  0  0  0  0  0999 V2000
   -3.5092    0.3826    0.4282 C   0  0  0  0  0  0  0  0  0  0  0  0
   -2.8548   -0.4905   -0.5380 N   0  0  0  0  0  0  0  0  0  0  0  0
   -3.6334   -1.6460   -0.9536 C   0  0  0  0  0  0  0  0  0  0  0  0
   -1.4654   -0.5930   -0.6668 C   0  0  0  0  0  0  0  0  0  0  0  0
   -0.9283   -1.6285   -1.0510 O   0  0  0  0  0  0  0  0  0  0  0  0
   -0.7911    0.5687   -0.3617 N   0  0  0  0  0  0  0  0  0  0  0  0
    0.6025    0.7396   -0.2402 C   0  0  0  0  0  0  0  0  0  0  0  0
    1.0899    2.0513   -0.2068 C   0  0  0  0  0  0  0  0  0  0  0  0
    2.4577    2.2998   -0.0786 C   0  0  0  0  0  0  0  0  0  0  0  0
    3.3518    1.2366    0.0279 C   0  0  0  0  0  0  0  0  0  0  0  0
    2.8837   -0.0850    0.0183 C   0  0  0  0  0  0  0  0  0  0  0  0
    1.5038   -0.3210   -0.1196 C   0  0  0  0  0  0  0  0  0  0  0  0
    3.8414   -1.2457    0.1218 C   0  0  0  0  0  0  0  0  0  0  0  0
    5.0385   -0.9017    0.6784 F   0  0  0  0  0  0  0  0  0  0  0  0
    4.1402   -1.7861   -1.0913 F   0  0  0  0  0  0  0  0  0  0  0  0
    3.3643   -2.2681    0.8847 F   0  0  0  0  0  0  0  0  0  0  0  0
  1  2  1  0
  2  3  1  0
  2  4  1  0
  4  5  2  0
  4  6  1  0
  6  7  1  0
  7  8  2  0
  8  9  1  0
  9 10  2  0
 10 11  1  0
 11 12  2  0
 11 13  1  0
 13 14  1  0
 13 15  1  0
 13 16  1  0
 12  7  1  0
M  END
>  <target>  (339) 
-3.43

$$$$

     RDKit          3D

 14 16  0  0  0  0  0  0  0  0999 V2000
    3.5903    0.6836   -0.4601 C   0  0  0  0  0  0  0  0  0  0  0  0
    3.6449   -0.4824    0.2943 C   0  0  0  0  0  0  0  0  0  0  0  0
    2.4603   -1.1034    0.7021 C   0  0  0  0  0  0  0  0  0  0  0  0
    1.2132   -0.5878    0.3745 C   0  0  0  0  0  0  0  0  0  0  0  0
    0.1056   -1.2253    0.7926 N   0  0  0  0  0  0  0  0  0  0  0  0
   -1.1003   -0.7231    0.4735 C   0  0  0  0  0  0  0  0  0  0  0  0
   -2.2464   -1.3787    0.9034 C   0  0  0  0  0  0  0  0  0  0  0  0
   -3.5257   -0.9018    0.6011 C   0  0  0  0  0  0  0  0  0  0  0  0
   -3.6715    0.2589   -0.1495 C   0  0  0  0  0  0  0  0  0  0  0  0
   -2.5385    0.9368   -0.5939 C   0  0  0  0  0  0  0  0  0  0  0  0
   -1.2543    0.4521   -0.2865 C   0  0  0  0  0  0  0  0  0  0  0  0
   -0.0954    1.1075   -0.7164 C   0  0  0  0  0  0  0  0  0  0  0  0
    1.1642    0.5936   -0.3899 C   0  0  0  0  0  0  0  0  0  0  0  0
    2.3524    1.2229   -0.8031 C   0  0  0  0  0  0  0  0  0  0  0  0
  1  2  2  0
  2  3  1  0
  3  4  2  0
  4  5  1  0
  5  6  2  0
  6  7  1  0
  7  8  2  0
  8  9  1  0
  9 10  2  0
 10 11  1  0
 11 12  2  0
 12 13  1  0
 13 14  2  0
 11  6  1  0
 13  4  1  0
 14  1  1  0
M  END
>  <target>  (340) 
-3.67

$$$$

     RDKit          3D

 26 29  0  0  0  0  0  0  0  0999 V2000
   -2.0804   -1.8951    0.1896 C   0  0  0  0  0  0  0  0  0  0  0  0
   -1.9190   -0.3910   -0.1321 C   0  0  0  0  0  0  0  0  0  0  0  0
   -1.3177    0.3351    1.0871 C   0  0  0  0  0  0  0  0  0  0  0  0
    0.0762   -0.1667    1.4007 C   0  0  0  0  0  0  0  0  0  0  0  0
    0.3843   -0.4049    2.5676 O   0  0  0  0  0  0  0  0  0  0  0  0
    1.0395   -0.3810    0.2260 C   0  0  0  0  0  0  0  0  0  0  0  0
    0.4521    0.3099   -1.0311 C   0  0  0  0  0  0  0  0  0  0  0  0
    1.3846    0.1100   -2.2381 C   0  0  0  0  0  0  0  0  0  0  0  0
    2.7766    0.6502   -1.9579 C   0  0  0  0  0  0  0  0  0  0  0  0
    3.3716    0.0027   -0.7337 C   0  0  0  0  0  0  0  0  0  0  0  0
    4.5961   -0.5484   -0.8139 C   0  0  0  0  0  0  0  0  0  0  0  0
    5.2875   -1.0961    0.3739 C   0  0  0  0  0  0  0  0  0  0  0  0
    6.3884   -1.6246    0.2417 O   0  0  0  0  0  0  0  0  0  0  0  0
    4.6390   -0.8988    1.7156 C   0  0  0  0  0  0  0  0  0  0  0  0
    3.1229   -0.9618    1.5877 C   0  0  0  0  0  0  0  0  0  0  0  0
    2.5254    0.0399    0.5504 C   0  0  0  0  0  0  0  0  0  0  0  0
    2.5964    1.4749    1.1214 C   0  0  0  0  0  0  0  0  0  0  0  0
   -0.9722   -0.2143   -1.3720 C   0  0  0  0  0  0  0  0  0  0  0  0
   -1.7040    0.7437   -2.3351 C   0  0  0  0  0  0  0  0  0  0  0  0
   -2.8135    1.3825   -1.5158 C   0  0  0  0  0  0  0  0  0  0  0  0
   -3.2724    0.2508   -0.5900 C   0  0  0  0  0  0  0  0  0  0  0  0
   -4.0120   -0.6780   -1.3847 O   0  0  0  0  0  0  0  0  0  0  0  0
   -4.1662    0.7877    0.5492 C   0  0  0  0  0  0  0  0  0  0  0  0
   -4.2230    1.9895    0.8305 O   0  0  0  0  0  0  0  0  0  0  0  0
   -4.9599   -0.2245    1.3681 C   0  0  0  0  0  0  0  0  0  0  0  0
   -5.9818    0.4162    2.1221 O   0  0  0  0  0  0  0  0  0  0  0  0
  1  2  1  0
  2  3  1  0
  3  4  1  0
  4  5  2  0
  4  6  1  0
  6  7  1  0
  7  8  1  0
  8  9  1  0
  9 10  1  0
 10 11  2  0
 11 12  1  0
 12 13  2  0
 12 14  1  0
 14 15  1  0
 15 16  1  0
 16 17  1  0
  7 18  1  0
 18 19  1  0
 19 20  1  0
 20 21  1  0
 21 22  1  0
 21 23  1  0
 23 24  2  0
 23 25  1  0
 25 26  1  0
 21  2  1  0
 18  2  1  0
 16  6  1  0
 16 10  1  0
M  END
>  <target>  (341) 
-3.11

$$$$

     RDKit          3D

 12 12  0  0  0  0  0  0  0  0999 V2000
    2.9586   -1.8620   -0.2763 O   0  0  0  0  0  0  0  0  0  0  0  0
    2.2409   -0.8149   -0.9333 C   0  0  0  0  0  0  0  0  0  0  0  0
    1.2247   -0.2148    0.0416 C   0  0  0  0  0  0  0  0  0  0  0  0
    0.2935   -1.2651    0.3769 O   0  0  0  0  0  0  0  0  0  0  0  0
   -0.6611   -0.8557    1.3502 C   0  0  0  0  0  0  0  0  0  0  0  0
   -1.4973   -1.9644    1.6396 O   0  0  0  0  0  0  0  0  0  0  0  0
   -1.5110    0.3134    0.8274 C   0  0  0  0  0  0  0  0  0  0  0  0
   -2.2977   -0.1218   -0.3058 O   0  0  0  0  0  0  0  0  0  0  0  0
   -0.6074    1.4736    0.3933 C   0  0  0  0  0  0  0  0  0  0  0  0
   -1.3885    2.4788   -0.2715 O   0  0  0  0  0  0  0  0  0  0  0  0
    0.4957    0.9954   -0.5620 C   0  0  0  0  0  0  0  0  0  0  0  0
   -0.1124    0.6391   -1.8153 O   0  0  0  0  0  0  0  0  0  0  0  0
  1  2  1  0
  2  3  1  0
  3  4  1  0
  4  5  1  0
  5  6  1  0
  5  7  1  0
  7  8  1  0
  7  9  1  0
  9 10  1  0
  9 11  1  0
 11 12  1  0
 11  3  1  0
M  END
>  <target>  (342) 
0.74

$$$$

     RDKit          3D

  8  8  0  0  0  0  0  0  0  0999 V2000
    2.3329    0.0424   -0.0137 C   0  0  0  0  0  0  0  0  0  0  0  0
    0.8408   -0.1078   -0.0554 C   0  0  0  0  0  0  0  0  0  0  0  0
    0.2622   -1.3633   -0.2862 C   0  0  0  0  0  0  0  0  0  0  0  0
   -1.1263   -1.5125   -0.2945 C   0  0  0  0  0  0  0  0  0  0  0  0
   -1.9470   -0.4107   -0.0619 C   0  0  0  0  0  0  0  0  0  0  0  0
   -1.3747    0.8317    0.1815 C   0  0  0  0  0  0  0  0  0  0  0  0
   -2.2135    1.8825    0.4116 O   0  0  0  0  0  0  0  0  0  0  0  0
    0.0092    0.9929    0.1922 C   0  0  0  0  0  0  0  0  0  0  0  0
  1  2  1  0
  2  3  2  0
  3  4  1  0
  4  5  2  0
  5  6  1  0
  6  7  1  0
  6  8  2  0
  8  2  1  0
M  END
>  <target>  (343) 
-0.68

$$$$

     RDKit          3D

 24 26  0  0  0  0  0  0  0  0999 V2000
   -2.0430    1.5304   -1.8088 C   0  0  0  0  0  0  0  0  0  0  0  0
   -1.5156    0.1770   -1.3185 C   0  0  0  0  0  0  0  0  0  0  0  0
   -2.5511   -0.9488   -1.5795 C   0  0  0  0  0  0  0  0  0  0  0  0
   -3.2102   -1.0468   -0.2438 C   0  0  0  0  0  0  0  0  0  0  0  0
   -4.3894   -1.6883    0.0952 C   0  0  0  0  0  0  0  0  0  0  0  0
   -4.7916   -1.6595    1.4313 C   0  0  0  0  0  0  0  0  0  0  0  0
   -4.0114   -1.0067    2.3983 C   0  0  0  0  0  0  0  0  0  0  0  0
   -2.8166   -0.3744    2.0411 C   0  0  0  0  0  0  0  0  0  0  0  0
   -2.4244   -0.3957    0.7120 C   0  0  0  0  0  0  0  0  0  0  0  0
   -1.2440    0.1559    0.1465 N   0  0  0  0  0  0  0  0  0  0  0  0
   -0.7880    1.3162    0.7848 N   0  0  0  0  0  0  0  0  0  0  0  0
    0.5543    1.6439    0.7653 C   0  0  0  0  0  0  0  0  0  0  0  0
    0.9095    2.8199    0.8213 O   0  0  0  0  0  0  0  0  0  0  0  0
    1.5848    0.5729    0.6758 C   0  0  0  0  0  0  0  0  0  0  0  0
    1.4068   -0.6844    1.2607 C   0  0  0  0  0  0  0  0  0  0  0  0
    2.4123   -1.6504    1.1680 C   0  0  0  0  0  0  0  0  0  0  0  0
    3.6115   -1.3663    0.5055 C   0  0  0  0  0  0  0  0  0  0  0  0
    4.7866   -2.6290    0.4412 Cl  0  0  0  0  0  0  0  0  0  0  0  0
    3.8019   -0.1019   -0.0583 C   0  0  0  0  0  0  0  0  0  0  0  0
    2.7927    0.8687    0.0302 C   0  0  0  0  0  0  0  0  0  0  0  0
    5.3173    0.2693   -0.8757 S   0  0  0  0  0  0  0  0  0  0  0  0
    5.1627    1.8694   -1.3767 N   0  0  0  0  0  0  0  0  0  0  0  0
    6.3806    0.2956    0.0999 O   0  0  0  0  0  0  0  0  0  0  0  0
    5.3774   -0.4895   -2.1026 O   0  0  0  0  0  0  0  0  0  0  0  0
  1  2  1  0
  2  3  1  0
  3  4  1  0
  4  5  2  0
  5  6  1  0
  6  7  2  0
  7  8  1  0
  8  9  2  0
  9 10  1  0
 10 11  1  0
 11 12  1  0
 12 13  2  0
 12 14  1  0
 14 15  2  0
 15 16  1  0
 16 17  2  0
 17 18  1  0
 17 19  1  0
 19 20  2  0
 19 21  1  0
 21 22  1  0
 21 23  2  0
 21 24  2  0
  9  4  1  0
 10  2  1  0
 20 14  1  0
M  END
>  <target>  (344) 
-3.5860000000000003

$$$$

     RDKit          3D

 29 31  0  0  0  0  0  0  0  0999 V2000
   -0.7798   -4.3486   -2.1148 C   0  0  0  0  0  0  0  0  0  0  0  0
   -0.5441   -4.3183   -0.6103 C   0  0  0  0  0  0  0  0  0  0  0  0
   -1.0753   -3.0657    0.1006 C   0  0  0  0  0  0  0  0  0  0  0  0
   -2.5858   -2.8839   -0.0427 C   0  0  0  0  0  0  0  0  0  0  0  0
   -0.2724   -1.8436   -0.3137 C   0  0  0  0  0  0  0  0  0  0  0  0
    0.8593   -1.6179    0.0987 O   0  0  0  0  0  0  0  0  0  0  0  0
   -0.9384   -1.0750   -1.2089 O   0  0  0  0  0  0  0  0  0  0  0  0
   -0.2942    0.1416   -1.6636 C   0  0  0  0  0  0  0  0  0  0  0  0
   -0.6094    0.2376   -3.1614 C   0  0  0  0  0  0  0  0  0  0  0  0
   -0.1076    1.5425   -3.7896 C   0  0  0  0  0  0  0  0  0  0  0  0
    1.4009    1.5121   -4.0398 C   0  0  0  0  0  0  0  0  0  0  0  0
   -0.4653    2.7392   -2.9494 C   0  0  0  0  0  0  0  0  0  0  0  0
   -0.8333    2.6636   -1.6592 C   0  0  0  0  0  0  0  0  0  0  0  0
   -1.1966    3.8549   -0.9123 C   0  0  0  0  0  0  0  0  0  0  0  0
   -1.3926    3.8390    0.4149 C   0  0  0  0  0  0  0  0  0  0  0  0
   -1.2063    2.6121    1.2779 C   0  0  0  0  0  0  0  0  0  0  0  0
   -2.5754    2.0770    1.7168 C   0  0  0  0  0  0  0  0  0  0  0  0
   -0.3502    1.5220    0.5601 C   0  0  0  0  0  0  0  0  0  0  0  0
    1.1760    1.8532    0.5776 C   0  0  0  0  0  0  0  0  0  0  0  0
    1.8455    2.1256    1.9379 C   0  0  0  0  0  0  0  0  0  0  0  0
    1.9779    0.9430    2.9155 C   0  0  0  0  0  0  0  0  0  0  0  0
    3.0130   -0.0950    2.4680 C   0  0  0  0  0  0  0  0  0  0  0  0
    2.4260   -1.4626    2.2076 C   0  0  0  0  0  0  0  0  0  0  0  0
    1.7812   -1.4519    0.9356 O   0  0  0  0  0  0  0  0  0  0  0  0
    1.4652   -1.8379    3.3081 C   0  0  0  0  0  0  0  0  0  0  0  0
    0.3525   -0.8439    3.4063 C   0  0  0  0  0  0  0  0  0  0  0  0
   -0.7943   -1.1938    3.6757 O   0  0  0  0  0  0  0  0  0  0  0  0
    0.6651    0.4579    3.2532 O   0  0  0  0  0  0  0  0  0  0  0  0
   -0.8986    1.3453   -0.8976 C   0  0  0  0  0  0  0  0  0  0  0  0
  1  2  1  0
  2  3  1  0
  3  4  1  0
  3  5  1  0
  5  6  2  0
  5  7  1  0
  7  8  1  0
  8  9  1  0
  9 10  1  0
 10 11  1  0
 10 12  1  0
 12 13  2  0
 13 14  1  0
 14 15  2  0
 15 16  1  0
 16 17  1  0
 16 18  1  0
 18 19  1  0
 19 20  1  0
 20 21  1  0
 21 22  1  0
 22 23  1  0
 23 24  1  0
 23 25  1  0
 25 26  1  0
 26 27  2  0
 26 28  1  0
 18 29  1  0
 28 21  1  0
 29  8  1  0
 29 13  1  0
M  END
>  <target>  (345) 
-6.005

$$$$

     RDKit          3D

 12 12  0  0  0  0  0  0  0  0999 V2000
   -3.5200    0.7875   -0.1509 O   0  0  0  0  0  0  0  0  0  0  0  0
   -2.8245   -0.1968   -0.4369 N   0  0  0  0  0  0  0  0  0  0  0  0
   -3.2618   -1.2599   -0.8981 O   0  0  0  0  0  0  0  0  0  0  0  0
   -1.3753   -0.0958   -0.2127 C   0  0  0  0  0  0  0  0  0  0  0  0
   -0.5464   -1.1853   -0.5217 C   0  0  0  0  0  0  0  0  0  0  0  0
    0.8332   -1.0892   -0.3083 C   0  0  0  0  0  0  0  0  0  0  0  0
    1.3753    0.0958    0.2127 C   0  0  0  0  0  0  0  0  0  0  0  0
    0.5464    1.1853    0.5217 C   0  0  0  0  0  0  0  0  0  0  0  0
   -0.8332    1.0892    0.3083 C   0  0  0  0  0  0  0  0  0  0  0  0
    2.8245    0.1968    0.4368 N   0  0  0  0  0  0  0  0  0  0  0  0
    3.5200   -0.7875    0.1509 O   0  0  0  0  0  0  0  0  0  0  0  0
    3.2619    1.2600    0.8980 O   0  0  0  0  0  0  0  0  0  0  0  0
  1  2  1  0
  2  3  2  0
  2  4  1  0
  4  5  2  0
  5  6  1  0
  6  7  2  0
  7  8  1  0
  8  9  2  0
  7 10  1  0
 10 11  1  0
 10 12  2  0
  9  4  1  0
M  CHG  4   1  -1   2   1  10   1  11  -1
M  END
>  <target>  (346) 
-3.39

$$$$

     RDKit          3D

 19 21  0  0  0  0  0  0  0  0999 V2000
   -2.7697   -2.2826    0.1108 C   0  0  0  0  0  0  0  0  0  0  0  0
   -1.3383   -1.7457    0.0799 C   0  0  0  0  0  0  0  0  0  0  0  0
   -1.2289   -0.2057   -0.0971 C   0  0  0  0  0  0  0  0  0  0  0  0
   -1.8141    0.2261   -1.4459 C   0  0  0  0  0  0  0  0  0  0  0  0
   -1.8180   -0.4795   -2.4541 O   0  0  0  0  0  0  0  0  0  0  0  0
   -2.3164    1.4958   -1.5100 N   0  0  0  0  0  0  0  0  0  0  0  0
   -2.9042    2.1213   -0.4594 C   0  0  0  0  0  0  0  0  0  0  0  0
   -3.7007    3.0393   -0.6252 O   0  0  0  0  0  0  0  0  0  0  0  0
   -2.6337    1.6346    0.7792 N   0  0  0  0  0  0  0  0  0  0  0  0
   -1.9749    0.4687    1.0638 C   0  0  0  0  0  0  0  0  0  0  0  0
   -1.9652    0.0495    2.2214 O   0  0  0  0  0  0  0  0  0  0  0  0
    0.2625    0.2378   -0.1183 C   0  0  0  0  0  0  0  0  0  0  0  0
    0.7969    1.2103    0.6575 C   0  0  0  0  0  0  0  0  0  0  0  0
    2.2501    1.6186    0.5803 C   0  0  0  0  0  0  0  0  0  0  0  0
    3.0750    0.7579   -0.3952 C   0  0  0  0  0  0  0  0  0  0  0  0
    3.2859   -0.6664    0.1480 C   0  0  0  0  0  0  0  0  0  0  0  0
    2.0889   -1.4823   -0.3621 C   0  0  0  0  0  0  0  0  0  0  0  0
    1.2012   -0.4714   -1.1074 C   0  0  0  0  0  0  0  0  0  0  0  0
    2.2465    0.5107   -1.6543 C   0  0  0  0  0  0  0  0  0  0  0  0
  1  2  1  0
  2  3  1  0
  3  4  1  0
  4  5  2  0
  4  6  1  0
  6  7  1  0
  7  8  2  0
  7  9  1  0
  9 10  1  0
 10 11  2  0
  3 12  1  0
 12 13  2  0
 13 14  1  0
 14 15  1  0
 15 16  1  0
 16 17  1  0
 17 18  1  0
 18 19  1  0
 10  3  1  0
 18 12  1  0
 19 15  1  0
M  END
>  <target>  (347) 
-2.696

$$$$

     RDKit          3D

 14 13  0  0  0  0  0  0  0  0999 V2000
   -6.4787   -1.2321   -0.4976 C   0  0  0  0  0  0  0  0  0  0  0  0
   -5.3906   -0.5496    0.3158 C   0  0  0  0  0  0  0  0  0  0  0  0
   -4.0660   -0.5063   -0.4456 C   0  0  0  0  0  0  0  0  0  0  0  0
   -2.9742    0.1810    0.3761 C   0  0  0  0  0  0  0  0  0  0  0  0
   -1.6486    0.2243   -0.3858 C   0  0  0  0  0  0  0  0  0  0  0  0
   -0.5568    0.9116    0.4359 C   0  0  0  0  0  0  0  0  0  0  0  0
    0.7692    0.9547   -0.3263 C   0  0  0  0  0  0  0  0  0  0  0  0
    1.8612    1.6422    0.4983 C   0  0  0  0  0  0  0  0  0  0  0  0
    3.1833    1.7463   -0.2564 C   0  0  0  0  0  0  0  0  0  0  0  0
    3.8293    0.4018   -0.4784 C   0  0  0  0  0  0  0  0  0  0  0  0
    3.9230   -0.1399   -1.5711 O   0  0  0  0  0  0  0  0  0  0  0  0
    4.2889   -0.1047    0.6987 O   0  0  0  0  0  0  0  0  0  0  0  0
    4.9177   -1.3921    0.6207 C   0  0  0  0  0  0  0  0  0  0  0  0
    6.3909   -1.2363    0.2936 C   0  0  0  0  0  0  0  0  0  0  0  0
  1  2  1  0
  2  3  1  0
  3  4  1  0
  4  5  1  0
  5  6  1  0
  6  7  1  0
  7  8  1  0
  8  9  1  0
  9 10  1  0
 10 11  2  0
 10 12  1  0
 12 13  1  0
 13 14  1  0
M  END
>  <target>  (348) 
-4.1

$$$$

     RDKit          3D

 12 12  0  0  0  0  0  0  0  0999 V2000
    3.5260    0.1827    1.0798 C   0  0  0  0  0  0  0  0  0  0  0  0
    2.4415    0.1417    0.1126 N   0  0  0  0  0  0  0  0  0  0  0  0
    2.7767   -0.4664   -1.1688 C   0  0  0  0  0  0  0  0  0  0  0  0
    1.1406    0.1783    0.6296 C   0  0  0  0  0  0  0  0  0  0  0  0
    0.9306    0.1775    1.8397 O   0  0  0  0  0  0  0  0  0  0  0  0
    0.1620    0.2501   -0.3370 N   0  0  0  0  0  0  0  0  0  0  0  0
   -1.2316    0.1410   -0.1549 C   0  0  0  0  0  0  0  0  0  0  0  0
   -1.8249   -0.3358    1.0155 C   0  0  0  0  0  0  0  0  0  0  0  0
   -3.2165   -0.4325    1.1158 C   0  0  0  0  0  0  0  0  0  0  0  0
   -4.0250   -0.0602    0.0444 C   0  0  0  0  0  0  0  0  0  0  0  0
   -3.4427    0.4063   -1.1310 C   0  0  0  0  0  0  0  0  0  0  0  0
   -2.0522    0.5031   -1.2311 C   0  0  0  0  0  0  0  0  0  0  0  0
  1  2  1  0
  2  3  1  0
  2  4  1  0
  4  5  2  0
  4  6  1  0
  6  7  1  0
  7  8  2  0
  8  9  1  0
  9 10  2  0
 10 11  1  0
 11 12  2  0
 12  7  1  0
M  END
>  <target>  (349) 
-1.6

$$$$

     RDKit          3D

  6  5  0  0  0  0  0  0  0  0999 V2000
    3.0027    0.0171   -0.1711 C   0  0  0  0  0  0  0  0  0  0  0  0
    1.7034    0.0336    0.6137 C   0  0  0  0  0  0  0  0  0  0  0  0
    0.4870   -0.0094   -0.3021 C   0  0  0  0  0  0  0  0  0  0  0  0
   -0.6856    0.0092    0.5105 O   0  0  0  0  0  0  0  0  0  0  0  0
   -1.8737   -0.0289   -0.2762 C   0  0  0  0  0  0  0  0  0  0  0  0
   -3.0675   -0.0063    0.6573 C   0  0  0  0  0  0  0  0  0  0  0  0
  1  2  1  0
  2  3  1  0
  3  4  1  0
  4  5  1  0
  5  6  1  0
M  END
>  <target>  (350) 
-0.66

$$$$

     RDKit          3D

  4  3  0  0  0  0  0  0  0  0999 V2000
   -1.1368   -0.3852   -0.4164 C   0  0  0  0  0  0  0  0  0  0  0  0
    0.0763    0.4528   -0.0422 C   0  0  0  0  0  0  0  0  0  0  0  0
    1.3298   -0.3993    0.0755 C   0  0  0  0  0  0  0  0  0  0  0  0
   -0.1551    1.0825    1.2139 O   0  0  0  0  0  0  0  0  0  0  0  0
  1  2  1  0
  2  3  1  0
  2  4  1  0
M  END
>  <target>  (351) 
0.43

$$$$

     RDKit          3D

 11 12  0  0  0  0  0  0  0  0999 V2000
    3.3121   -0.6020   -0.1191 C   0  0  0  0  0  0  0  0  0  0  0  0
    1.8989   -0.1081   -0.0259 C   0  0  0  0  0  0  0  0  0  0  0  0
    1.6311    1.2027    0.3772 C   0  0  0  0  0  0  0  0  0  0  0  0
    0.3134    1.6517    0.4938 C   0  0  0  0  0  0  0  0  0  0  0  0
   -0.7642    0.7957    0.2203 C   0  0  0  0  0  0  0  0  0  0  0  0
   -2.0944    1.2324    0.3331 C   0  0  0  0  0  0  0  0  0  0  0  0
   -3.1550    0.3668    0.0611 C   0  0  0  0  0  0  0  0  0  0  0  0
   -2.8997   -0.9453   -0.3261 C   0  0  0  0  0  0  0  0  0  0  0  0
   -1.5831   -1.3945   -0.4427 C   0  0  0  0  0  0  0  0  0  0  0  0
   -0.5043   -0.5360   -0.1739 C   0  0  0  0  0  0  0  0  0  0  0  0
    0.8270   -0.9727   -0.2868 C   0  0  0  0  0  0  0  0  0  0  0  0
  1  2  1  0
  2  3  2  0
  3  4  1  0
  4  5  2  0
  5  6  1  0
  6  7  2  0
  7  8  1  0
  8  9  2  0
  9 10  1  0
 10 11  2  0
 11  2  1  0
 10  5  1  0
M  END
>  <target>  (352) 
-3.77

$$$$

     RDKit          3D

  4  3  0  0  0  0  0  0  0  0999 V2000
   -0.1359    1.6406   -0.6031 Cl  0  0  0  0  0  0  0  0  0  0  0  0
   -0.0055    0.0392    0.1269 C   0  0  0  0  0  0  0  0  0  0  0  0
   -1.5214   -1.0504   -0.3954 Br  0  0  0  0  0  0  0  0  0  0  0  0
    1.6946   -0.7648   -0.3433 Br  0  0  0  0  0  0  0  0  0  0  0  0
  1  2  1  0
  2  3  1  0
  2  4  1  0
M  END
>  <target>  (353) 
-1.9

$$$$

     RDKit          3D

 20 21  0  0  0  0  0  0  0  0999 V2000
    0.6360    0.8737    3.0100 C   0  0  0  0  0  0  0  0  0  0  0  0
   -0.0294    1.0886    1.6540 C   0  0  0  0  0  0  0  0  0  0  0  0
    0.3746    0.0268    0.5936 C   0  0  0  0  0  0  0  0  0  0  0  0
   -0.4624    0.1812   -0.7273 C   0  0  0  0  0  0  0  0  0  0  0  0
   -0.0419   -0.7769   -1.8748 C   0  0  0  0  0  0  0  0  0  0  0  0
   -0.1445   -2.2676   -1.5774 C   0  0  0  0  0  0  0  0  0  0  0  0
   -1.9788    0.1173   -0.5337 C   0  0  0  0  0  0  0  0  0  0  0  0
   -2.7961    1.0390   -1.2122 C   0  0  0  0  0  0  0  0  0  0  0  0
   -4.1858    1.0101   -1.0688 C   0  0  0  0  0  0  0  0  0  0  0  0
   -4.7677    0.0525   -0.2474 C   0  0  0  0  0  0  0  0  0  0  0  0
   -6.1188   -0.0136   -0.0778 O   0  0  0  0  0  0  0  0  0  0  0  0
   -3.9839   -0.8737    0.4265 C   0  0  0  0  0  0  0  0  0  0  0  0
   -2.5950   -0.8444    0.2824 C   0  0  0  0  0  0  0  0  0  0  0  0
    1.8796    0.0953    0.3288 C   0  0  0  0  0  0  0  0  0  0  0  0
    2.6939   -1.0031    0.6495 C   0  0  0  0  0  0  0  0  0  0  0  0
    4.0695   -0.9617    0.4169 C   0  0  0  0  0  0  0  0  0  0  0  0
    4.6411    0.1774   -0.1336 C   0  0  0  0  0  0  0  0  0  0  0  0
    5.9882    0.1752   -0.3435 O   0  0  0  0  0  0  0  0  0  0  0  0
    3.8589    1.2804   -0.4557 C   0  0  0  0  0  0  0  0  0  0  0  0
    2.4817    1.2387   -0.2234 C   0  0  0  0  0  0  0  0  0  0  0  0
  1  2  1  0
  2  3  1  0
  3  4  1  0
  4  5  1  0
  5  6  1  0
  4  7  1  0
  7  8  2  0
  8  9  1  0
  9 10  2  0
 10 11  1  0
 10 12  1  0
 12 13  2  0
  3 14  1  0
 14 15  2  0
 15 16  1  0
 16 17  2  0
 17 18  1  0
 17 19  1  0
 19 20  2  0
 13  7  1  0
 20 14  1  0
M  END
>  <target>  (354) 
-4.43

$$$$

     RDKit          3D

 19 18  0  0  0  0  0  0  0  0999 V2000
   -5.2366   -1.9176   -0.5184 C   0  0  0  0  0  0  0  0  0  0  0  0
   -4.1921   -1.9628    0.5809 C   0  0  0  0  0  0  0  0  0  0  0  0
   -2.8743   -1.9199    0.0130 O   0  0  0  0  0  0  0  0  0  0  0  0
   -2.3667   -0.6781   -0.2184 C   0  0  0  0  0  0  0  0  0  0  0  0
   -2.9485    0.3766   -0.0101 O   0  0  0  0  0  0  0  0  0  0  0  0
   -0.9795   -0.7987   -0.7991 C   0  0  0  0  0  0  0  0  0  0  0  0
   -0.3449    0.5835   -0.9548 C   0  0  0  0  0  0  0  0  0  0  0  0
    1.1939    0.4996   -1.9298 S   0  0  0  0  0  0  0  0  0  0  0  0
    2.7198   -0.2205   -0.6637 P   0  0  0  0  0  0  0  0  0  0  0  0
    3.7534    1.0567    0.3877 S   0  0  0  0  0  0  0  0  0  0  0  0
    2.0478   -1.4136    0.2078 O   0  0  0  0  0  0  0  0  0  0  0  0
    2.8503   -2.1562    1.1044 C   0  0  0  0  0  0  0  0  0  0  0  0
    3.6781   -1.1398   -1.6087 O   0  0  0  0  0  0  0  0  0  0  0  0
    4.3400   -0.5475   -2.7095 C   0  0  0  0  0  0  0  0  0  0  0  0
   -0.0975    1.2270    0.3996 C   0  0  0  0  0  0  0  0  0  0  0  0
    0.2377    0.6138    1.4040 O   0  0  0  0  0  0  0  0  0  0  0  0
   -0.3161    2.5692    0.3311 O   0  0  0  0  0  0  0  0  0  0  0  0
   -0.3066    3.2784    1.5790 C   0  0  0  0  0  0  0  0  0  0  0  0
    1.0930    3.7446    1.9242 C   0  0  0  0  0  0  0  0  0  0  0  0
  1  2  1  0
  2  3  1  0
  3  4  1  0
  4  5  2  0
  4  6  1  0
  6  7  1  0
  7  8  1  0
  8  9  1  0
  9 10  2  0
  9 11  1  0
 11 12  1  0
  9 13  1  0
 13 14  1  0
  7 15  1  0
 15 16  2  0
 15 17  1  0
 17 18  1  0
 18 19  1  0
M  END
>  <target>  (355) 
-3.37

$$$$

     RDKit          3D

  8  8  0  0  0  0  0  0  0  0999 V2000
    2.9715   -0.1493   -1.3217 Cl  0  0  0  0  0  0  0  0  0  0  0  0
    2.1782   -0.2651    0.2615 C   0  0  0  0  0  0  0  0  0  0  0  0
    0.6922   -0.0894    0.1235 C   0  0  0  0  0  0  0  0  0  0  0  0
    0.1157    1.1873    0.1949 C   0  0  0  0  0  0  0  0  0  0  0  0
   -1.2637    1.3504    0.0564 C   0  0  0  0  0  0  0  0  0  0  0  0
   -2.0796    0.2419   -0.1610 C   0  0  0  0  0  0  0  0  0  0  0  0
   -1.5174   -1.0303   -0.2449 C   0  0  0  0  0  0  0  0  0  0  0  0
   -0.1382   -1.1960   -0.1068 C   0  0  0  0  0  0  0  0  0  0  0  0
  1  2  1  0
  2  3  1  0
  3  4  2  0
  4  5  1  0
  5  6  2  0
  6  7  1  0
  7  8  2  0
  8  3  1  0
M  END
>  <target>  (356) 
-2.39

$$$$

     RDKit          3D

  5  4  0  0  0  0  0  0  0  0999 V2000
   -1.7460    0.0854   -0.1960 C   0  0  0  0  0  0  0  0  0  0  0  0
   -0.3305    0.3594    0.1980 C   0  0  0  0  0  0  0  0  0  0  0  0
    0.7009   -0.4093   -0.1782 C   0  0  0  0  0  0  0  0  0  0  0  0
    2.0772   -0.0833    0.2457 C   0  0  0  0  0  0  0  0  0  0  0  0
    3.0282   -0.7773   -0.0911 O   0  0  0  0  0  0  0  0  0  0  0  0
  1  2  1  0
  2  3  2  0
  3  4  1  0
  4  5  2  0
M  END
>  <target>  (357) 
0.32

$$$$

     RDKit          3D

 15 15  0  0  0  0  0  0  0  0999 V2000
   -3.0583   -1.0142   -1.3440 C   0  0  0  0  0  0  0  0  0  0  0  0
   -2.1993   -1.4558   -0.2907 O   0  0  0  0  0  0  0  0  0  0  0  0
   -2.1980   -0.4554    0.7247 N   0  0  0  0  0  0  0  0  0  0  0  0
   -2.9888   -0.8803    1.8627 C   0  0  0  0  0  0  0  0  0  0  0  0
   -0.9381    0.1075    0.9841 C   0  0  0  0  0  0  0  0  0  0  0  0
   -0.6977    0.7170    2.0224 O   0  0  0  0  0  0  0  0  0  0  0  0
   -0.0538   -0.0890   -0.0583 N   0  0  0  0  0  0  0  0  0  0  0  0
    1.2666    0.3691   -0.1912 C   0  0  0  0  0  0  0  0  0  0  0  0
    1.8817    1.2369    0.7116 C   0  0  0  0  0  0  0  0  0  0  0  0
    3.2017    1.6549    0.5083 C   0  0  0  0  0  0  0  0  0  0  0  0
    3.9192    1.2102   -0.6039 C   0  0  0  0  0  0  0  0  0  0  0  0
    5.7033    1.8266   -0.8035 Br  0  0  0  0  0  0  0  0  0  0  0  0
    3.3095    0.3444   -1.5152 C   0  0  0  0  0  0  0  0  0  0  0  0
    4.1194   -0.2537   -2.9204 Cl  0  0  0  0  0  0  0  0  0  0  0  0
    1.9883   -0.0711   -1.3070 C   0  0  0  0  0  0  0  0  0  0  0  0
  1  2  1  0
  2  3  1  0
  3  4  1  0
  3  5  1  0
  5  6  2  0
  5  7  1  0
  7  8  1  0
  8  9  2  0
  9 10  1  0
 10 11  2  0
 11 12  1  0
 11 13  1  0
 13 14  1  0
 13 15  2  0
 15  8  1  0
M  END
>  <target>  (358) 
-3.924

$$$$

     RDKit          3D

 16 18  0  0  0  0  0  0  0  0999 V2000
   -0.0880   -2.8702   -0.5878 C   0  0  0  0  0  0  0  0  0  0  0  0
   -0.0425   -1.3839   -0.2818 C   0  0  0  0  0  0  0  0  0  0  0  0
    1.2143   -0.7526   -0.0378 C   0  0  0  0  0  0  0  0  0  0  0  0
    2.4344   -1.4762    0.0355 C   0  0  0  0  0  0  0  0  0  0  0  0
    3.6628   -0.8617    0.2749 C   0  0  0  0  0  0  0  0  0  0  0  0
    3.7105    0.5044    0.4608 C   0  0  0  0  0  0  0  0  0  0  0  0
    2.5292    1.2430    0.4057 C   0  0  0  0  0  0  0  0  0  0  0  0
    1.2632    0.6505    0.1532 C   0  0  0  0  0  0  0  0  0  0  0  0
    0.0549    1.4084    0.0983 C   0  0  0  0  0  0  0  0  0  0  0  0
    0.1140    2.9220    0.2007 C   0  0  0  0  0  0  0  0  0  0  0  0
   -1.2118    0.7576    0.0009 C   0  0  0  0  0  0  0  0  0  0  0  0
   -2.4435    1.4581    0.0996 C   0  0  0  0  0  0  0  0  0  0  0  0
   -3.6817    0.8242    0.0058 C   0  0  0  0  0  0  0  0  0  0  0  0
   -3.7294   -0.5420   -0.1802 C   0  0  0  0  0  0  0  0  0  0  0  0
   -2.5383   -1.2611   -0.2706 C   0  0  0  0  0  0  0  0  0  0  0  0
   -1.2607   -0.6456   -0.1901 C   0  0  0  0  0  0  0  0  0  0  0  0
  1  2  1  0
  2  3  2  0
  3  4  1  0
  4  5  2  0
  5  6  1  0
  6  7  2  0
  7  8  1  0
  8  9  2  0
  9 10  1  0
  9 11  1  0
 11 12  2  0
 12 13  1  0
 13 14  2  0
 14 15  1  0
 15 16  2  0
 16  2  1  0
  8  3  1  0
 16 11  1  0
M  END
>  <target>  (359) 
-6.57

$$$$

     RDKit          3D

  9  8  0  0  0  0  0  0  0  0999 V2000
   -4.0426    0.0934    0.1547 C   0  0  0  0  0  0  0  0  0  0  0  0
   -2.7143   -0.6389    0.0499 C   0  0  0  0  0  0  0  0  0  0  0  0
   -1.5346    0.3320    0.0922 C   0  0  0  0  0  0  0  0  0  0  0  0
   -0.2008   -0.4082   -0.0135 C   0  0  0  0  0  0  0  0  0  0  0  0
    0.9786    0.5618    0.0287 C   0  0  0  0  0  0  0  0  0  0  0  0
    2.3040   -0.1560   -0.0748 C   0  0  0  0  0  0  0  0  0  0  0  0
    2.4525   -1.3649   -0.1807 O   0  0  0  0  0  0  0  0  0  0  0  0
    3.3164    0.7570   -0.0318 O   0  0  0  0  0  0  0  0  0  0  0  0
    4.6203    0.1814   -0.1228 C   0  0  0  0  0  0  0  0  0  0  0  0
  1  2  1  0
  2  3  1  0
  3  4  1  0
  4  5  1  0
  5  6  1  0
  6  7  2  0
  6  8  1  0
  8  9  1  0
M  END
>  <target>  (360) 
-1.87

$$$$

     RDKit          3D

 23 24  0  0  0  0  0  0  0  0999 V2000
   -6.4273    0.2196    1.4470 C   0  0  0  0  0  0  0  0  0  0  0  0
   -6.1482   -0.3578    0.1379 N   0  0  0  0  0  0  0  0  0  0  0  0
   -7.2905   -0.4383   -0.7584 C   0  0  0  0  0  0  0  0  0  0  0  0
   -4.8827   -0.3458   -0.4568 C   0  0  0  0  0  0  0  0  0  0  0  0
   -4.7433   -0.3321   -1.6768 O   0  0  0  0  0  0  0  0  0  0  0  0
   -3.8445   -0.3874    0.4475 N   0  0  0  0  0  0  0  0  0  0  0  0
   -2.4724   -0.2178    0.1795 C   0  0  0  0  0  0  0  0  0  0  0  0
   -1.9735    0.2956   -1.0092 C   0  0  0  0  0  0  0  0  0  0  0  0
   -0.5915    0.4549   -1.1936 C   0  0  0  0  0  0  0  0  0  0  0  0
    0.3453    0.1154   -0.1995 C   0  0  0  0  0  0  0  0  0  0  0  0
   -0.1797   -0.3949    1.0093 C   0  0  0  0  0  0  0  0  0  0  0  0
    0.7634   -0.8637    2.3899 Cl  0  0  0  0  0  0  0  0  0  0  0  0
   -1.5685   -0.5524    1.1869 C   0  0  0  0  0  0  0  0  0  0  0  0
    1.7327    0.3022   -0.4614 N   0  0  0  0  0  0  0  0  0  0  0  0
    2.6775   -0.0555    0.4549 N   0  0  0  0  0  0  0  0  0  0  0  0
    3.7938    0.2473   -0.1210 C   0  0  0  0  0  0  0  0  0  0  0  0
    3.6915    0.7802   -1.3523 O   0  0  0  0  0  0  0  0  0  0  0  0
    2.3477    0.8234   -1.5907 C   0  0  0  0  0  0  0  0  0  0  0  0
    1.8799    1.2598   -2.6292 O   0  0  0  0  0  0  0  0  0  0  0  0
    5.1838    0.0665    0.4364 C   0  0  0  0  0  0  0  0  0  0  0  0
    5.1192   -0.5397    1.8465 C   0  0  0  0  0  0  0  0  0  0  0  0
    5.8743    1.4345    0.5076 C   0  0  0  0  0  0  0  0  0  0  0  0
    5.9693   -0.8775   -0.4827 C   0  0  0  0  0  0  0  0  0  0  0  0
  1  2  1  0
  2  3  1  0
  2  4  1  0
  4  5  2  0
  4  6  1  0
  6  7  1  0
  7  8  2  0
  8  9  1  0
  9 10  2  0
 10 11  1  0
 11 12  1  0
 11 13  2  0
 10 14  1  0
 14 15  1  0
 15 16  2  0
 16 17  1  0
 17 18  1  0
 18 19  2  0
 16 20  1  0
 20 21  1  0
 20 22  1  0
 20 23  1  0
 13  7  1  0
 18 14  1  0
M  END
>  <target>  (361) 
-4.328

$$$$

     RDKit          3D

 11 11  0  0  0  0  0  0  0  0999 V2000
    3.4392    0.1689    0.3610 C   0  0  0  0  0  0  0  0  0  0  0  0
    2.0820    0.6349   -0.1049 C   0  0  0  0  0  0  0  0  0  0  0  0
    1.9576    1.6918   -0.7126 O   0  0  0  0  0  0  0  0  0  0  0  0
    1.0821   -0.2670    0.2122 N   0  0  0  0  0  0  0  0  0  0  0  0
   -0.2948   -0.1572   -0.0715 C   0  0  0  0  0  0  0  0  0  0  0  0
   -0.8724    0.9316   -0.7316 C   0  0  0  0  0  0  0  0  0  0  0  0
   -2.2498    0.9636   -0.9739 C   0  0  0  0  0  0  0  0  0  0  0  0
   -3.0474   -0.0926   -0.5556 C   0  0  0  0  0  0  0  0  0  0  0  0
   -4.3657   -0.0604   -0.7883 F   0  0  0  0  0  0  0  0  0  0  0  0
   -2.4943   -1.1827    0.1019 C   0  0  0  0  0  0  0  0  0  0  0  0
   -1.1185   -1.2148    0.3440 C   0  0  0  0  0  0  0  0  0  0  0  0
  1  2  1  0
  2  3  2  0
  2  4  1  0
  4  5  1  0
  5  6  2  0
  6  7  1  0
  7  8  2  0
  8  9  1  0
  8 10  1  0
 10 11  2  0
 11  5  1  0
M  END
>  <target>  (362) 
-1.78

$$$$

     RDKit          3D

 18 18  0  0  0  0  0  0  0  0999 V2000
   -1.1056    2.8153    1.3989 C   0  0  0  0  0  0  0  0  0  0  0  0
   -0.8566    2.3968   -0.0439 C   0  0  0  0  0  0  0  0  0  0  0  0
   -1.3191    0.9814   -0.3154 C   0  0  0  0  0  0  0  0  0  0  0  0
   -2.7002    0.7507   -0.4306 C   0  0  0  0  0  0  0  0  0  0  0  0
   -3.1943   -0.5278   -0.6708 C   0  0  0  0  0  0  0  0  0  0  0  0
   -2.3161   -1.6004   -0.7921 C   0  0  0  0  0  0  0  0  0  0  0  0
   -0.9278   -1.4144   -0.6806 C   0  0  0  0  0  0  0  0  0  0  0  0
   -0.0403   -2.6360   -0.7972 C   0  0  0  0  0  0  0  0  0  0  0  0
   -0.0863   -3.5041    0.4533 C   0  0  0  0  0  0  0  0  0  0  0  0
   -0.4319   -0.1101   -0.4520 C   0  0  0  0  0  0  0  0  0  0  0  0
    0.9648    0.1064   -0.3694 N   0  0  0  0  0  0  0  0  0  0  0  0
    1.5876   -0.0667    0.9290 C   0  0  0  0  0  0  0  0  0  0  0  0
    1.8545    1.2251    1.4669 O   0  0  0  0  0  0  0  0  0  0  0  0
    2.6089    1.1391    2.6661 C   0  0  0  0  0  0  0  0  0  0  0  0
    1.7773    0.3123   -1.4805 C   0  0  0  0  0  0  0  0  0  0  0  0
    3.0109    0.3164   -1.3970 O   0  0  0  0  0  0  0  0  0  0  0  0
    1.1132    0.5377   -2.8298 C   0  0  0  0  0  0  0  0  0  0  0  0
    1.2046   -0.9533   -3.7894 Cl  0  0  0  0  0  0  0  0  0  0  0  0
  1  2  1  0
  2  3  1  0
  3  4  2  0
  4  5  1  0
  5  6  2  0
  6  7  1  0
  7  8  1  0
  8  9  1  0
  7 10  2  0
 10 11  1  0
 11 12  1  0
 12 13  1  0
 13 14  1  0
 11 15  1  0
 15 16  2  0
 15 17  1  0
 17 18  1  0
 10  3  1  0
M  END
>  <target>  (363) 
-3.26

$$$$

     RDKit          3D

  6  6  0  0  0  0  0  0  0  0999 V2000
   -0.4890    1.1405   -0.4854 C   0  0  0  0  0  0  0  0  0  0  0  0
    0.8582    0.9958    0.2173 C   0  0  0  0  0  0  0  0  0  0  0  0
    1.4432   -0.4049    0.0185 C   0  0  0  0  0  0  0  0  0  0  0  0
    0.4221   -1.4954    0.1652 C   0  0  0  0  0  0  0  0  0  0  0  0
   -0.8992   -1.2650    0.1813 C   0  0  0  0  0  0  0  0  0  0  0  0
   -1.4954    0.1031    0.0194 C   0  0  0  0  0  0  0  0  0  0  0  0
  1  2  1  0
  2  3  1  0
  3  4  1  0
  4  5  2  0
  5  6  1  0
  6  1  1  0
M  END
>  <target>  (364) 
-2.59

$$$$

     RDKit          3D

 26 29  0  0  0  0  0  0  0  0999 V2000
   -1.7627   -1.4740   -0.4132 C   0  0  0  0  0  0  0  0  0  0  0  0
   -1.7922   -0.0567    0.2170 C   0  0  0  0  0  0  0  0  0  0  0  0
   -1.2284   -0.1075    1.6461 C   0  0  0  0  0  0  0  0  0  0  0  0
    0.2582   -0.5099    1.6631 C   0  0  0  0  0  0  0  0  0  0  0  0
    0.7303   -0.4161    3.0048 O   0  0  0  0  0  0  0  0  0  0  0  0
    1.1567    0.3664    0.7396 C   0  0  0  0  0  0  0  0  0  0  0  0
    0.5380    0.5845   -0.6781 C   0  0  0  0  0  0  0  0  0  0  0  0
    1.3121    1.6676   -1.4664 C   0  0  0  0  0  0  0  0  0  0  0  0
    2.7854    1.7878   -1.0804 C   0  0  0  0  0  0  0  0  0  0  0  0
    3.3165    0.4566   -0.6325 C   0  0  0  0  0  0  0  0  0  0  0  0
    4.2544   -0.1833   -1.3518 C   0  0  0  0  0  0  0  0  0  0  0  0
    4.7638   -1.5144   -0.9519 C   0  0  0  0  0  0  0  0  0  0  0  0
    5.6570   -2.0400   -1.6124 O   0  0  0  0  0  0  0  0  0  0  0  0
    4.1966   -2.1609    0.2854 C   0  0  0  0  0  0  0  0  0  0  0  0
    2.7856   -1.6625    0.5841 C   0  0  0  0  0  0  0  0  0  0  0  0
    2.6700   -0.1156    0.6366 C   0  0  0  0  0  0  0  0  0  0  0  0
    3.4687    0.4188    1.8503 C   0  0  0  0  0  0  0  0  0  0  0  0
   -0.9411    0.9713   -0.5579 C   0  0  0  0  0  0  0  0  0  0  0  0
   -1.7347    1.2026   -1.8409 C   0  0  0  0  0  0  0  0  0  0  0  0
   -3.2137    1.0680   -1.4166 C   0  0  0  0  0  0  0  0  0  0  0  0
   -3.2037    0.5842    0.0504 C   0  0  0  0  0  0  0  0  0  0  0  0
   -3.2992    1.7635    0.8745 O   0  0  0  0  0  0  0  0  0  0  0  0
   -4.3530   -0.3288    0.5124 C   0  0  0  0  0  0  0  0  0  0  0  0
   -4.5820   -0.4508    1.7236 O   0  0  0  0  0  0  0  0  0  0  0  0
   -5.2016   -1.0677   -0.5090 C   0  0  0  0  0  0  0  0  0  0  0  0
   -6.1108   -0.2171   -1.1777 O   0  0  0  0  0  0  0  0  0  0  0  0
  1  2  1  0
  2  3  1  0
  3  4  1  0
  4  5  1  0
  4  6  1  0
  6  7  1  0
  7  8  1  0
  8  9  1  0
  9 10  1  0
 10 11  2  0
 11 12  1  0
 12 13  2  0
 12 14  1  0
 14 15  1  0
 15 16  1  0
 16 17  1  0
  7 18  1  0
 18 19  1  0
 19 20  1  0
 20 21  1  0
 21 22  1  0
 21 23  1  0
 23 24  2  0
 23 25  1  0
 25 26  1  0
 21  2  1  0
 18  2  1  0
 16  6  1  0
 16 10  1  0
M  END
>  <target>  (365) 
-3.09

$$$$

     RDKit          3D

  6  6  0  0  0  0  0  0  0  0999 V2000
   -1.1475    0.0348   -0.0534 C   0  0  0  0  0  0  0  0  0  0  0  0
   -0.4512   -1.1513   -0.0178 C   0  0  0  0  0  0  0  0  0  0  0  0
    0.8915   -1.2240    0.0447 N   0  0  0  0  0  0  0  0  0  0  0  0
    1.5357   -0.0466    0.0714 C   0  0  0  0  0  0  0  0  0  0  0  0
    0.9643    1.1676    0.0416 N   0  0  0  0  0  0  0  0  0  0  0  0
   -0.3803    1.1765   -0.0209 C   0  0  0  0  0  0  0  0  0  0  0  0
  1  2  2  0
  2  3  1  0
  3  4  2  0
  4  5  1  0
  5  6  2  0
  6  1  1  0
M  END
>  <target>  (366) 
1.1

$$$$

     RDKit          3D

 10 10  0  0  0  0  0  0  0  0999 V2000
    3.4067    0.6419   -0.9023 Cl  0  0  0  0  0  0  0  0  0  0  0  0
    1.7711    0.3337   -0.4691 C   0  0  0  0  0  0  0  0  0  0  0  0
    1.4288   -0.8858    0.1175 C   0  0  0  0  0  0  0  0  0  0  0  0
    0.1007   -1.1413    0.4716 C   0  0  0  0  0  0  0  0  0  0  0  0
   -0.8777   -0.1654    0.2325 C   0  0  0  0  0  0  0  0  0  0  0  0
   -0.5335    1.0598   -0.3569 C   0  0  0  0  0  0  0  0  0  0  0  0
    0.7975    1.3053   -0.7072 C   0  0  0  0  0  0  0  0  0  0  0  0
   -2.2748   -0.4286    0.6025 N   0  0  0  0  0  0  0  0  0  0  0  0
   -3.1078    0.4597    0.3743 O   0  0  0  0  0  0  0  0  0  0  0  0
   -2.5365   -1.5232    1.1207 O   0  0  0  0  0  0  0  0  0  0  0  0
  1  2  1  0
  2  3  2  0
  3  4  1  0
  4  5  2  0
  5  6  1  0
  6  7  2  0
  5  8  1  0
  8  9  1  0
  8 10  2  0
  7  2  1  0
M  CHG  2   8   1   9  -1
M  END
>  <target>  (367) 
-2.92

$$$$

     RDKit          3D

  6  5  0  0  0  0  0  0  0  0999 V2000
   -2.2627   -0.0407   -0.1950 C   0  0  0  0  0  0  0  0  0  0  0  0
   -1.0075    0.6381    0.3245 C   0  0  0  0  0  0  0  0  0  0  0  0
    0.2315   -0.1845    0.0633 C   0  0  0  0  0  0  0  0  0  0  0  0
    0.2590   -1.2710   -0.4964 O   0  0  0  0  0  0  0  0  0  0  0  0
    1.3220    0.4741    0.5504 O   0  0  0  0  0  0  0  0  0  0  0  0
    2.5542   -0.2208    0.3545 C   0  0  0  0  0  0  0  0  0  0  0  0
  1  2  1  0
  2  3  1  0
  3  4  2  0
  3  5  1  0
  5  6  1  0
M  END
>  <target>  (368) 
-0.14

$$$$

     RDKit          3D

 10 10  0  0  0  0  0  0  0  0999 V2000
    1.1905    2.6318    0.1686 Cl  0  0  0  0  0  0  0  0  0  0  0  0
    0.2743    1.1745    0.0604 C   0  0  0  0  0  0  0  0  0  0  0  0
   -1.1197    1.2739    0.0731 C   0  0  0  0  0  0  0  0  0  0  0  0
   -1.9115    0.1212    0.0163 C   0  0  0  0  0  0  0  0  0  0  0  0
   -1.3181   -1.1413   -0.0495 C   0  0  0  0  0  0  0  0  0  0  0  0
    0.0710   -1.2569   -0.0633 C   0  0  0  0  0  0  0  0  0  0  0  0
    0.8500   -0.0931   -0.0131 C   0  0  0  0  0  0  0  0  0  0  0  0
    2.2847   -0.2440   -0.0383 N   0  0  0  0  0  0  0  0  0  0  0  0
    2.8097   -0.7567    0.9589 O   0  0  0  0  0  0  0  0  0  0  0  0
    2.8724    0.1052   -1.0698 O   0  0  0  0  0  0  0  0  0  0  0  0
  1  2  1  0
  2  3  2  0
  3  4  1  0
  4  5  2  0
  5  6  1  0
  6  7  2  0
  7  8  1  0
  8  9  1  0
  8 10  2  0
  7  2  1  0
M  CHG  2   8   1   9  -1
M  END
>  <target>  (369) 
-2.55

$$$$

     RDKit          3D

 17 17  0  0  0  0  0  0  0  0999 V2000
    3.2938    1.7079   -0.4474 C   0  0  0  0  0  0  0  0  0  0  0  0
    2.1360    0.7242   -0.5219 C   0  0  0  0  0  0  0  0  0  0  0  0
    2.6047   -0.6542   -0.9903 C   0  0  0  0  0  0  0  0  0  0  0  0
    1.4582   -1.6530   -1.1924 C   0  0  0  0  0  0  0  0  0  0  0  0
    0.7638   -2.0273    0.0467 N   0  0  0  0  0  0  0  0  0  0  0  0
    1.5199   -2.8514    0.9793 C   0  0  0  0  0  0  0  0  0  0  0  0
   -0.3258   -1.3316    0.5827 C   0  0  0  0  0  0  0  0  0  0  0  0
   -0.5832   -1.3648    1.7835 O   0  0  0  0  0  0  0  0  0  0  0  0
   -1.0698   -0.6438   -0.3503 N   0  0  0  0  0  0  0  0  0  0  0  0
   -2.0880    0.2982   -0.0990 C   0  0  0  0  0  0  0  0  0  0  0  0
   -2.2938    0.8981    1.1450 C   0  0  0  0  0  0  0  0  0  0  0  0
   -3.3124    1.8415    1.3195 C   0  0  0  0  0  0  0  0  0  0  0  0
   -4.1306    2.2012    0.2479 C   0  0  0  0  0  0  0  0  0  0  0  0
   -5.3667    3.3730    0.5322 Cl  0  0  0  0  0  0  0  0  0  0  0  0
   -3.9231    1.6150   -1.0035 C   0  0  0  0  0  0  0  0  0  0  0  0
   -4.8859    2.0123   -2.3835 Cl  0  0  0  0  0  0  0  0  0  0  0  0
   -2.9030    0.6706   -1.1745 C   0  0  0  0  0  0  0  0  0  0  0  0
  1  2  1  0
  2  3  1  0
  3  4  1  0
  4  5  1  0
  5  6  1  0
  5  7  1  0
  7  8  2  0
  7  9  1  0
  9 10  1  0
 10 11  2  0
 11 12  1  0
 12 13  2  0
 13 14  1  0
 13 15  1  0
 15 16  1  0
 15 17  2  0
 17 10  1  0
M  END
>  <target>  (370) 
-4.77

$$$$

     RDKit          3D

 17 18  0  0  0  0  0  0  0  0999 V2000
   -5.0345    1.2687    0.3994 C   0  0  0  0  0  0  0  0  0  0  0  0
   -3.9529    0.4049   -0.0059 N   0  0  0  0  0  0  0  0  0  0  0  0
   -4.1026   -1.0305   -0.0810 C   0  0  0  0  0  0  0  0  0  0  0  0
   -2.7019   -1.5159   -0.4477 C   0  0  0  0  0  0  0  0  0  0  0  0
   -2.6145   -1.7988   -1.8363 O   0  0  0  0  0  0  0  0  0  0  0  0
   -1.8445   -0.4028   -0.1434 N   0  0  0  0  0  0  0  0  0  0  0  0
   -2.5988    0.7550    0.0991 C   0  0  0  0  0  0  0  0  0  0  0  0
   -2.2120    1.8788    0.3793 O   0  0  0  0  0  0  0  0  0  0  0  0
   -0.4711   -0.4856   -0.1344 C   0  0  0  0  0  0  0  0  0  0  0  0
    0.1824   -1.5907   -0.4277 N   0  0  0  0  0  0  0  0  0  0  0  0
    1.5485   -1.4277   -0.3626 N   0  0  0  0  0  0  0  0  0  0  0  0
    1.8955   -0.2016   -0.0194 C   0  0  0  0  0  0  0  0  0  0  0  0
    0.5396    0.8310    0.2472 S   0  0  0  0  0  0  0  0  0  0  0  0
    3.3300    0.2830    0.1336 C   0  0  0  0  0  0  0  0  0  0  0  0
    3.6248    1.4279   -0.8528 C   0  0  0  0  0  0  0  0  0  0  0  0
    4.3079   -0.8722   -0.1719 C   0  0  0  0  0  0  0  0  0  0  0  0
    3.5921    0.7583    1.5745 C   0  0  0  0  0  0  0  0  0  0  0  0
  1  2  1  0
  2  3  1  0
  3  4  1  0
  4  5  1  0
  4  6  1  0
  6  7  1  0
  7  8  2  0
  6  9  1  0
  9 10  2  0
 10 11  1  0
 11 12  2  0
 12 13  1  0
 12 14  1  0
 14 15  1  0
 14 16  1  0
 14 17  1  0
  7  2  1  0
 13  9  1  0
M  END
>  <target>  (371) 
-1.8769999999999998

$$$$

     RDKit          3D

  9  9  0  0  0  0  0  0  0  0999 V2000
    2.7786   -1.4169    0.1246 O   0  0  0  0  0  0  0  0  0  0  0  0
    2.3274   -0.2789   -0.0698 N   0  0  0  0  0  0  0  0  0  0  0  0
    3.0222    0.7218   -0.2987 O   0  0  0  0  0  0  0  0  0  0  0  0
    0.8706   -0.1043   -0.0261 C   0  0  0  0  0  0  0  0  0  0  0  0
    0.0463   -1.2087    0.2295 C   0  0  0  0  0  0  0  0  0  0  0  0
   -1.3384   -1.0365    0.2698 C   0  0  0  0  0  0  0  0  0  0  0  0
   -1.8932    0.2269    0.0568 C   0  0  0  0  0  0  0  0  0  0  0  0
   -1.0694    1.3250   -0.1976 C   0  0  0  0  0  0  0  0  0  0  0  0
    0.3167    1.1652   -0.2404 C   0  0  0  0  0  0  0  0  0  0  0  0
  1  2  1  0
  2  3  2  0
  2  4  1  0
  4  5  2  0
  5  6  1  0
  6  7  2  0
  7  8  1  0
  8  9  2  0
  9  4  1  0
M  CHG  2   1  -1   2   1
M  END
>  <target>  (372) 
-1.8

$$$$

     RDKit          3D

  7  7  0  0  0  0  0  0  0  0999 V2000
    3.3892    0.0879    0.0328 I   0  0  0  0  0  0  0  0  0  0  0  0
    1.3111    0.0340    0.0127 C   0  0  0  0  0  0  0  0  0  0  0  0
    0.6496   -1.1943   -0.0062 C   0  0  0  0  0  0  0  0  0  0  0  0
   -0.7459   -1.2282   -0.0197 C   0  0  0  0  0  0  0  0  0  0  0  0
   -1.4740   -0.0382   -0.0143 C   0  0  0  0  0  0  0  0  0  0  0  0
   -0.8088    1.1879    0.0047 C   0  0  0  0  0  0  0  0  0  0  0  0
    0.5866    1.2263    0.0182 C   0  0  0  0  0  0  0  0  0  0  0  0
  1  2  1  0
  2  3  2  0
  3  4  1  0
  4  5  2  0
  5  6  1  0
  6  7  2  0
  7  2  1  0
M  END
>  <target>  (373) 
-3.01

$$$$

     RDKit          3D

 24 26  0  0  0  0  0  0  0  0999 V2000
   -1.0429    0.5503    2.2312 C   0  0  0  0  0  0  0  0  0  0  0  0
   -1.0015   -0.5618    1.1742 C   0  0  0  0  0  0  0  0  0  0  0  0
    0.2238   -1.3459    1.2955 N   0  0  0  0  0  0  0  0  0  0  0  0
    1.3763   -0.7212    0.8062 C   0  0  0  0  0  0  0  0  0  0  0  0
    2.6380   -1.1398    1.2439 C   0  0  0  0  0  0  0  0  0  0  0  0
    3.8122   -0.5672    0.7325 C   0  0  0  0  0  0  0  0  0  0  0  0
    5.3002   -1.1678    1.3726 Cl  0  0  0  0  0  0  0  0  0  0  0  0
    3.7239    0.4182   -0.2525 C   0  0  0  0  0  0  0  0  0  0  0  0
    2.4684    0.8144   -0.7341 C   0  0  0  0  0  0  0  0  0  0  0  0
    1.3050    0.2307   -0.2146 C   0  0  0  0  0  0  0  0  0  0  0  0
   -0.0264    0.5781   -0.7747 C   0  0  0  0  0  0  0  0  0  0  0  0
   -0.0639    1.3325   -1.7438 O   0  0  0  0  0  0  0  0  0  0  0  0
   -1.1274   -0.0515   -0.1865 N   0  0  0  0  0  0  0  0  0  0  0  0
   -2.4577    0.2124   -0.6447 C   0  0  0  0  0  0  0  0  0  0  0  0
   -2.8508    1.5318   -0.9217 C   0  0  0  0  0  0  0  0  0  0  0  0
   -4.1643    1.8284   -1.2890 C   0  0  0  0  0  0  0  0  0  0  0  0
   -5.1042    0.8095   -1.3897 C   0  0  0  0  0  0  0  0  0  0  0  0
   -4.7244   -0.5095   -1.1489 C   0  0  0  0  0  0  0  0  0  0  0  0
   -3.3993   -0.8286   -0.7986 C   0  0  0  0  0  0  0  0  0  0  0  0
   -3.0508   -2.2861   -0.6524 C   0  0  0  0  0  0  0  0  0  0  0  0
    5.1625    1.1986   -0.9116 S   0  0  0  0  0  0  0  0  0  0  0  0
    5.9709   -0.0642   -1.6644 N   0  0  0  0  0  0  0  0  0  0  0  0
    4.7727    2.0783   -1.9898 O   0  0  0  0  0  0  0  0  0  0  0  0
    5.9948    1.6574    0.1738 O   0  0  0  0  0  0  0  0  0  0  0  0
  1  2  1  0
  2  3  1  0
  3  4  1  0
  4  5  2  0
  5  6  1  0
  6  7  1  0
  6  8  2  0
  8  9  1  0
  9 10  2  0
 10 11  1  0
 11 12  2  0
 11 13  1  0
 13 14  1  0
 14 15  2  0
 15 16  1  0
 16 17  2  0
 17 18  1  0
 18 19  2  0
 19 20  1  0
  8 21  1  0
 21 22  1  0
 21 23  2  0
 21 24  2  0
 10  4  1  0
 13  2  1  0
 19 14  1  0
M  END
>  <target>  (374) 
-3.78

$$$$

     RDKit          3D

 17 17  0  0  0  0  0  0  0  0999 V2000
   -2.7938    2.5825   -1.6188 C   0  0  0  0  0  0  0  0  0  0  0  0
   -1.9558    1.6062   -1.0175 O   0  0  0  0  0  0  0  0  0  0  0  0
   -2.5556    0.4733   -0.5237 C   0  0  0  0  0  0  0  0  0  0  0  0
   -3.9208    0.1863   -0.6362 C   0  0  0  0  0  0  0  0  0  0  0  0
   -4.4391   -0.9971   -0.1064 C   0  0  0  0  0  0  0  0  0  0  0  0
   -3.5991   -1.8993    0.5390 C   0  0  0  0  0  0  0  0  0  0  0  0
   -2.2354   -1.6248    0.6563 C   0  0  0  0  0  0  0  0  0  0  0  0
   -1.7041   -0.4448    0.1241 C   0  0  0  0  0  0  0  0  0  0  0  0
   -0.3807   -0.0883    0.1998 O   0  0  0  0  0  0  0  0  0  0  0  0
    0.5474   -1.0791    0.6332 C   0  0  0  0  0  0  0  0  0  0  0  0
    1.9742   -0.5348    0.4930 C   0  0  0  0  0  0  0  0  0  0  0  0
    2.8601   -1.5196    1.0450 O   0  0  0  0  0  0  0  0  0  0  0  0
    2.3199   -0.2326   -0.9778 C   0  0  0  0  0  0  0  0  0  0  0  0
    3.3347    0.7922   -1.0940 O   0  0  0  0  0  0  0  0  0  0  0  0
    4.5979    0.4357   -0.7908 C   0  0  0  0  0  0  0  0  0  0  0  0
    5.4351    1.4726   -1.0010 N   0  0  0  0  0  0  0  0  0  0  0  0
    4.9551   -0.6527   -0.3698 O   0  0  0  0  0  0  0  0  0  0  0  0
  1  2  1  0
  2  3  1  0
  3  4  2  0
  4  5  1  0
  5  6  2  0
  6  7  1  0
  7  8  2  0
  8  9  1  0
  9 10  1  0
 10 11  1  0
 11 12  1  0
 11 13  1  0
 13 14  1  0
 14 15  1  0
 15 16  1  0
 15 17  2  0
  8  3  1  0
M  END
>  <target>  (375) 
-0.985

$$$$

     RDKit          3D

 21 21  0  0  0  0  0  0  0  0999 V2000
    3.8481    1.9630   -0.0642 C   0  0  0  0  0  0  0  0  0  0  0  0
    3.7218    1.1769   -1.3604 C   0  0  0  0  0  0  0  0  0  0  0  0
    3.9132   -0.3310   -1.1745 C   0  0  0  0  0  0  0  0  0  0  0  0
    2.8053   -1.0145   -0.3745 C   0  0  0  0  0  0  0  0  0  0  0  0
    1.5683   -0.8750   -1.0703 O   0  0  0  0  0  0  0  0  0  0  0  0
    0.5113   -1.6308   -0.4796 C   0  0  0  0  0  0  0  0  0  0  0  0
   -0.2151   -0.8134    0.4843 N   0  0  0  0  0  0  0  0  0  0  0  0
    0.0908   -0.9373    1.8368 C   0  0  0  0  0  0  0  0  0  0  0  0
    1.0150   -1.6587    2.2303 O   0  0  0  0  0  0  0  0  0  0  0  0
   -0.7324   -0.1475    2.8442 C   0  0  0  0  0  0  0  0  0  0  0  0
   -1.7501   -1.2680    3.7744 Cl  0  0  0  0  0  0  0  0  0  0  0  0
   -1.4065   -0.1967    0.0206 C   0  0  0  0  0  0  0  0  0  0  0  0
   -1.3695    1.1511   -0.4055 C   0  0  0  0  0  0  0  0  0  0  0  0
   -0.1103    1.9906   -0.3975 C   0  0  0  0  0  0  0  0  0  0  0  0
   -0.1498    3.1080    0.6370 C   0  0  0  0  0  0  0  0  0  0  0  0
   -2.5559    1.7499   -0.8623 C   0  0  0  0  0  0  0  0  0  0  0  0
   -3.7537    1.0426   -0.8825 C   0  0  0  0  0  0  0  0  0  0  0  0
   -3.7851   -0.2815   -0.4569 C   0  0  0  0  0  0  0  0  0  0  0  0
   -2.6193   -0.9265   -0.0093 C   0  0  0  0  0  0  0  0  0  0  0  0
   -2.7370   -2.3773    0.4116 C   0  0  0  0  0  0  0  0  0  0  0  0
   -2.9718   -3.3115   -0.7688 C   0  0  0  0  0  0  0  0  0  0  0  0
  1  2  1  0
  2  3  1  0
  3  4  1  0
  4  5  1  0
  5  6  1  0
  6  7  1  0
  7  8  1  0
  8  9  2  0
  8 10  1  0
 10 11  1  0
  7 12  1  0
 12 13  2  0
 13 14  1  0
 14 15  1  0
 13 16  1  0
 16 17  2  0
 17 18  1  0
 18 19  2  0
 19 20  1  0
 20 21  1  0
 19 12  1  0
M  END
>  <target>  (376) 
-4.19

$$$$

     RDKit          3D

  9  9  0  0  0  0  0  0  0  0999 V2000
   -2.3194    0.9027   -0.2847 O   0  0  0  0  0  0  0  0  0  0  0  0
   -1.0686    0.3653   -0.1343 C   0  0  0  0  0  0  0  0  0  0  0  0
   -0.9667   -1.0214   -0.2051 C   0  0  0  0  0  0  0  0  0  0  0  0
    0.2784   -1.6304   -0.0600 C   0  0  0  0  0  0  0  0  0  0  0  0
    1.4157   -0.8489    0.1553 C   0  0  0  0  0  0  0  0  0  0  0  0
    1.3112    0.5455    0.2262 C   0  0  0  0  0  0  0  0  0  0  0  0
    2.7622    1.4453    0.4949 Cl  0  0  0  0  0  0  0  0  0  0  0  0
    0.0630    1.1610    0.0811 C   0  0  0  0  0  0  0  0  0  0  0  0
   -0.1345    2.8795    0.1584 Cl  0  0  0  0  0  0  0  0  0  0  0  0
  1  2  1  0
  2  3  2  0
  3  4  1  0
  4  5  2  0
  5  6  1  0
  6  7  1  0
  6  8  2  0
  8  9  1  0
  8  2  1  0
M  END
>  <target>  (377) 
-1.3

$$$$

     RDKit          3D

  7  6  0  0  0  0  0  0  0  0999 V2000
   -2.8719   -0.1073    0.0054 C   0  0  0  0  0  0  0  0  0  0  0  0
   -1.4848   -0.6520    0.3046 C   0  0  0  0  0  0  0  0  0  0  0  0
   -0.4024    0.3869    0.0231 C   0  0  0  0  0  0  0  0  0  0  0  0
    0.9808   -0.1448    0.3174 C   0  0  0  0  0  0  0  0  0  0  0  0
    1.2392   -1.2656    0.7317 O   0  0  0  0  0  0  0  0  0  0  0  0
    1.9033    0.8232    0.0484 O   0  0  0  0  0  0  0  0  0  0  0  0
    3.2520    0.4228    0.2939 C   0  0  0  0  0  0  0  0  0  0  0  0
  1  2  1  0
  2  3  1  0
  3  4  1  0
  4  5  2  0
  4  6  1  0
  6  7  1  0
M  END
>  <target>  (378) 
-1.92

$$$$

     RDKit          3D

 13 13  0  0  0  0  0  0  0  0999 V2000
    3.9837    0.5869   -0.2728 C   0  0  0  0  0  0  0  0  0  0  0  0
    2.7922    0.0673    0.5122 C   0  0  0  0  0  0  0  0  0  0  0  0
    1.4744    0.2748   -0.2188 C   0  0  0  0  0  0  0  0  0  0  0  0
    1.4133    0.8068   -1.3204 O   0  0  0  0  0  0  0  0  0  0  0  0
    0.4055   -0.2089    0.5215 N   0  0  0  0  0  0  0  0  0  0  0  0
   -0.9604   -0.1924    0.1699 C   0  0  0  0  0  0  0  0  0  0  0  0
   -1.4535    0.3357   -1.0245 C   0  0  0  0  0  0  0  0  0  0  0  0
   -2.8261    0.3141   -1.2998 C   0  0  0  0  0  0  0  0  0  0  0  0
   -3.7216   -0.2365   -0.3826 C   0  0  0  0  0  0  0  0  0  0  0  0
   -5.4001   -0.2300   -0.7866 Cl  0  0  0  0  0  0  0  0  0  0  0  0
   -3.2377   -0.7674    0.8153 C   0  0  0  0  0  0  0  0  0  0  0  0
   -4.2779   -1.4678    2.0053 Cl  0  0  0  0  0  0  0  0  0  0  0  0
   -1.8636   -0.7441    1.0875 C   0  0  0  0  0  0  0  0  0  0  0  0
  1  2  1  0
  2  3  1  0
  3  4  2  0
  3  5  1  0
  5  6  1  0
  6  7  2  0
  7  8  1  0
  8  9  2  0
  9 10  1  0
  9 11  1  0
 11 12  1  0
 11 13  2  0
 13  6  1  0
M  END
>  <target>  (379) 
-3.0

$$$$

     RDKit          3D

 19 21  0  0  0  0  0  0  0  0999 V2000
    5.5905    0.2945   -0.2262 N   0  0  0  0  0  0  0  0  0  0  0  0
    4.2356    0.2072    0.0121 C   0  0  0  0  0  0  0  0  0  0  0  0
    3.8445    0.0171    1.2678 N   0  0  0  0  0  0  0  0  0  0  0  0
    2.5219   -0.0642    1.4757 C   0  0  0  0  0  0  0  0  0  0  0  0
    2.1366   -0.3216    2.8025 N   0  0  0  0  0  0  0  0  0  0  0  0
    1.5677    0.0173    0.4669 C   0  0  0  0  0  0  0  0  0  0  0  0
    0.2235   -0.0529    0.6921 N   0  0  0  0  0  0  0  0  0  0  0  0
   -0.5866    0.0553   -0.3903 C   0  0  0  0  0  0  0  0  0  0  0  0
   -2.0318   -0.0148   -0.0967 C   0  0  0  0  0  0  0  0  0  0  0  0
   -2.9605    0.8577   -0.6924 C   0  0  0  0  0  0  0  0  0  0  0  0
   -4.3261    0.7753   -0.4010 C   0  0  0  0  0  0  0  0  0  0  0  0
   -4.7903   -0.1780    0.5005 C   0  0  0  0  0  0  0  0  0  0  0  0
   -3.8917   -1.0446    1.1153 C   0  0  0  0  0  0  0  0  0  0  0  0
   -2.5273   -0.9596    0.8219 C   0  0  0  0  0  0  0  0  0  0  0  0
   -0.0328    0.1995   -1.6725 C   0  0  0  0  0  0  0  0  0  0  0  0
   -0.7925    0.2921   -2.8406 N   0  0  0  0  0  0  0  0  0  0  0  0
    1.3009    0.2790   -1.8666 N   0  0  0  0  0  0  0  0  0  0  0  0
    2.1127    0.1954   -0.8073 C   0  0  0  0  0  0  0  0  0  0  0  0
    3.4204    0.2823   -1.0332 N   0  0  0  0  0  0  0  0  0  0  0  0
  1  2  1  0
  2  3  2  0
  3  4  1  0
  4  5  1  0
  4  6  2  0
  6  7  1  0
  7  8  2  0
  8  9  1  0
  9 10  2  0
 10 11  1  0
 11 12  2  0
 12 13  1  0
 13 14  2  0
  8 15  1  0
 15 16  1  0
 15 17  2  0
 17 18  1  0
 18 19  2  0
 14  9  1  0
 18  6  1  0
 19  2  1  0
M  END
>  <target>  (380) 
-2.404

$$$$

     RDKit          3D

 10  9  0  0  0  0  0  0  0  0999 V2000
   -4.7004    0.5774    0.1179 C   0  0  0  0  0  0  0  0  0  0  0  0
   -3.4891   -0.3346    0.0058 C   0  0  0  0  0  0  0  0  0  0  0  0
   -2.1834    0.4524    0.1151 C   0  0  0  0  0  0  0  0  0  0  0  0
   -0.9678   -0.4682    0.0019 C   0  0  0  0  0  0  0  0  0  0  0  0
    0.3374    0.3179    0.1110 C   0  0  0  0  0  0  0  0  0  0  0  0
    1.5478   -0.5793    0.0008 C   0  0  0  0  0  0  0  0  0  0  0  0
    1.5237   -1.7914   -0.1568 O   0  0  0  0  0  0  0  0  0  0  0  0
    2.6794    0.1749    0.1049 O   0  0  0  0  0  0  0  0  0  0  0  0
    3.8957   -0.5766    0.0137 C   0  0  0  0  0  0  0  0  0  0  0  0
    5.0588    0.3873    0.1451 C   0  0  0  0  0  0  0  0  0  0  0  0
  1  2  1  0
  2  3  1  0
  3  4  1  0
  4  5  1  0
  5  6  1  0
  6  7  2  0
  6  8  1  0
  8  9  1  0
  9 10  1  0
M  END
>  <target>  (381) 
-2.35

$$$$

     RDKit          3D

 17 18  0  0  0  0  0  0  0  0999 V2000
   -3.8331    1.2217    1.4923 O   0  0  0  0  0  0  0  0  0  0  0  0
   -2.4245    1.1566    1.2443 C   0  0  0  0  0  0  0  0  0  0  0  0
   -2.1370   -0.1557    0.5089 C   0  0  0  0  0  0  0  0  0  0  0  0
   -2.9183   -0.1754   -0.7007 O   0  0  0  0  0  0  0  0  0  0  0  0
   -0.6460   -0.3346    0.2035 C   0  0  0  0  0  0  0  0  0  0  0  0
   -0.0946    0.8402   -0.4357 O   0  0  0  0  0  0  0  0  0  0  0  0
    0.9018    0.4020   -1.3714 C   0  0  0  0  0  0  0  0  0  0  0  0
    2.1661    0.9761   -1.0712 O   0  0  0  0  0  0  0  0  0  0  0  0
    2.9231   -0.0453   -0.3963 C   0  0  0  0  0  0  0  0  0  0  0  0
    2.0823   -1.2010   -0.1846 O   0  0  0  0  0  0  0  0  0  0  0  0
    1.0787   -1.0889   -1.2000 C   0  0  0  0  0  0  0  0  0  0  0  0
   -0.2831   -1.5177   -0.7082 C   0  0  0  0  0  0  0  0  0  0  0  0
   -1.1273   -1.6724   -1.8500 O   0  0  0  0  0  0  0  0  0  0  0  0
    3.6029    0.4635    0.9129 C   0  0  0  0  0  0  0  0  0  0  0  0
    2.3928    0.9889    2.1322 Cl  0  0  0  0  0  0  0  0  0  0  0  0
    4.6945    1.8495    0.5630 Cl  0  0  0  0  0  0  0  0  0  0  0  0
    4.6007   -0.8443    1.6466 Cl  0  0  0  0  0  0  0  0  0  0  0  0
  1  2  1  0
  2  3  1  0
  3  4  1  0
  3  5  1  0
  5  6  1  0
  6  7  1  0
  7  8  1  0
  8  9  1  0
  9 10  1  0
 10 11  1  0
 11 12  1  0
 12 13  1  0
  9 14  1  0
 14 15  1  0
 14 16  1  0
 14 17  1  0
 11  7  1  0
 12  5  1  0
M  END
>  <target>  (382) 
-1.84

$$$$

     RDKit          3D

 22 23  0  0  0  0  0  0  0  0999 V2000
    0.2791   -2.9870   -0.1922 C   0  0  0  0  0  0  0  0  0  0  0  0
    0.1255   -1.5304   -0.1985 N   0  0  0  0  0  0  0  0  0  0  0  0
   -1.1582   -1.0318   -0.0575 C   0  0  0  0  0  0  0  0  0  0  0  0
   -2.2493   -1.7069    0.1105 N   0  0  0  0  0  0  0  0  0  0  0  0
   -3.4248   -0.9472    0.2305 C   0  0  0  0  0  0  0  0  0  0  0  0
   -4.1498   -0.6269   -0.9219 C   0  0  0  0  0  0  0  0  0  0  0  0
   -5.3238    0.1241   -0.8422 C   0  0  0  0  0  0  0  0  0  0  0  0
   -5.7909    0.5702    0.3971 C   0  0  0  0  0  0  0  0  0  0  0  0
   -7.0694    1.3494    0.4922 C   0  0  0  0  0  0  0  0  0  0  0  0
   -5.0843    0.2233    1.5565 C   0  0  0  0  0  0  0  0  0  0  0  0
   -3.9064   -0.5393    1.4859 C   0  0  0  0  0  0  0  0  0  0  0  0
   -3.1690   -0.8966    2.7453 C   0  0  0  0  0  0  0  0  0  0  0  0
    1.2599   -0.7785   -0.4515 C   0  0  0  0  0  0  0  0  0  0  0  0
    2.4603   -1.2137   -0.6622 N   0  0  0  0  0  0  0  0  0  0  0  0
    3.4352   -0.2283   -0.8903 C   0  0  0  0  0  0  0  0  0  0  0  0
    3.6558    0.2254   -2.1949 C   0  0  0  0  0  0  0  0  0  0  0  0
    4.6177    1.2020   -2.4587 C   0  0  0  0  0  0  0  0  0  0  0  0
    5.3748    1.7437   -1.4163 C   0  0  0  0  0  0  0  0  0  0  0  0
    6.4322    2.7698   -1.6983 C   0  0  0  0  0  0  0  0  0  0  0  0
    5.1789    1.2675   -0.1131 C   0  0  0  0  0  0  0  0  0  0  0  0
    4.2183    0.2793    0.1600 C   0  0  0  0  0  0  0  0  0  0  0  0
    4.0297   -0.2139    1.5666 C   0  0  0  0  0  0  0  0  0  0  0  0
  1  2  1  0
  2  3  1  0
  3  4  2  3
  4  5  1  0
  5  6  2  0
  6  7  1  0
  7  8  2  0
  8  9  1  0
  8 10  1  0
 10 11  2  0
 11 12  1  0
  2 13  1  0
 13 14  2  3
 14 15  1  0
 15 16  2  0
 16 17  1  0
 17 18  2  0
 18 19  1  0
 18 20  1  0
 20 21  2  0
 21 22  1  0
 11  5  1  0
 21 15  1  0
M  END
>  <target>  (383) 
-5.47

$$$$

     RDKit          3D

 16 16  0  0  0  0  0  0  0  0999 V2000
   -1.1554    1.8243    3.1590 C   0  0  0  0  0  0  0  0  0  0  0  0
    0.0195    1.9438    2.3684 O   0  0  0  0  0  0  0  0  0  0  0  0
    0.0429    1.0780    1.2938 C   0  0  0  0  0  0  0  0  0  0  0  0
    1.1431    1.1494    0.5610 N   0  0  0  0  0  0  0  0  0  0  0  0
    1.1758    0.3221   -0.4697 C   0  0  0  0  0  0  0  0  0  0  0  0
    2.2691    0.3019   -1.3219 N   0  0  0  0  0  0  0  0  0  0  0  0
    3.5696    0.6443   -0.7610 C   0  0  0  0  0  0  0  0  0  0  0  0
    4.5283    0.9160   -1.9212 C   0  0  0  0  0  0  0  0  0  0  0  0
    4.1058   -0.4960    0.1047 C   0  0  0  0  0  0  0  0  0  0  0  0
    0.2035   -0.5280   -0.7750 N   0  0  0  0  0  0  0  0  0  0  0  0
   -0.8562   -0.5171    0.0223 C   0  0  0  0  0  0  0  0  0  0  0  0
   -1.8589   -1.4144   -0.3117 N   0  0  0  0  0  0  0  0  0  0  0  0
   -3.2329   -1.0352   -0.0100 C   0  0  0  0  0  0  0  0  0  0  0  0
   -3.7267    0.0400   -0.9781 C   0  0  0  0  0  0  0  0  0  0  0  0
   -4.1054   -2.2858   -0.1265 C   0  0  0  0  0  0  0  0  0  0  0  0
   -0.9882    0.2719    1.0758 N   0  0  0  0  0  0  0  0  0  0  0  0
  1  2  1  0
  2  3  1  0
  3  4  2  0
  4  5  1  0
  5  6  1  0
  6  7  1  0
  7  8  1  0
  7  9  1  0
  5 10  2  0
 10 11  1  0
 11 12  1  0
 12 13  1  0
 13 14  1  0
 13 15  1  0
 11 16  2  0
 16  3  1  0
M  END
>  <target>  (384) 
-2.478

$$$$

     RDKit          3D

  8  7  0  0  0  0  0  0  0  0999 V2000
   -4.0550   -0.2725    0.0850 C   0  0  0  0  0  0  0  0  0  0  0  0
   -2.7637    0.3070    0.6402 C   0  0  0  0  0  0  0  0  0  0  0  0
   -1.5384   -0.2989   -0.0436 C   0  0  0  0  0  0  0  0  0  0  0  0
   -0.2416    0.2866    0.5178 C   0  0  0  0  0  0  0  0  0  0  0  0
    0.9852   -0.3196   -0.1667 C   0  0  0  0  0  0  0  0  0  0  0  0
    2.2814    0.2668    0.3964 C   0  0  0  0  0  0  0  0  0  0  0  0
    3.4862   -0.3373   -0.2659 C   0  0  0  0  0  0  0  0  0  0  0  0
    4.3781    0.3596   -0.9812 C   0  0  0  0  0  0  0  0  0  0  0  0
  1  2  1  0
  2  3  1  0
  3  4  1  0
  4  5  1  0
  5  6  1  0
  6  7  1  0
  7  8  2  0
M  END
>  <target>  (385) 
-4.44

$$$$

     RDKit          3D

  8  8  0  0  0  0  0  0  0  0999 V2000
   -2.6922    0.0705   -0.1876 C   0  0  0  0  0  0  0  0  0  0  0  0
   -1.2012    0.0286   -0.0351 C   0  0  0  0  0  0  0  0  0  0  0  0
   -0.5030   -1.1711   -0.2031 C   0  0  0  0  0  0  0  0  0  0  0  0
    0.8911   -1.2008   -0.0947 C   0  0  0  0  0  0  0  0  0  0  0  0
    1.6087   -0.0439    0.2145 C   0  0  0  0  0  0  0  0  0  0  0  0
    3.0088   -0.0574    0.2060 N   0  0  0  0  0  0  0  0  0  0  0  0
    0.9164    1.1649    0.3071 C   0  0  0  0  0  0  0  0  0  0  0  0
   -0.4776    1.2018    0.2000 C   0  0  0  0  0  0  0  0  0  0  0  0
  1  2  1  0
  2  3  2  0
  3  4  1  0
  4  5  2  0
  5  6  1  0
  5  7  1  0
  7  8  2  0
  8  2  1  0
M  END
>  <target>  (386) 
-1.21

$$$$

     RDKit          3D

  6  6  0  0  0  0  0  0  0  0999 V2000
   -2.0199   -0.0765   -0.5622 N   0  0  0  0  0  0  0  0  0  0  0  0
   -0.6971   -0.0527   -0.3283 C   0  0  0  0  0  0  0  0  0  0  0  0
   -0.0264    1.0546   -0.1280 N   0  0  0  0  0  0  0  0  0  0  0  0
    1.3062    0.7631    0.0874 C   0  0  0  0  0  0  0  0  0  0  0  0
    1.6335   -0.5745    0.0610 C   0  0  0  0  0  0  0  0  0  0  0  0
    0.2248   -1.5005   -0.2456 S   0  0  0  0  0  0  0  0  0  0  0  0
  1  2  1  0
  2  3  2  0
  3  4  1  0
  4  5  2  0
  5  6  1  0
  6  2  1  0
M  END
>  <target>  (387) 
-0.36

$$$$

     RDKit          3D

 11 11  0  0  0  0  0  0  0  0999 V2000
   -1.3280   -1.1582    0.0567 C   0  0  0  0  0  0  0  0  0  0  0  0
   -2.6723   -1.2386   -0.3045 C   0  0  0  0  0  0  0  0  0  0  0  0
   -3.4480   -0.0789   -0.3744 C   0  0  0  0  0  0  0  0  0  0  0  0
   -2.8831    1.1642   -0.0798 C   0  0  0  0  0  0  0  0  0  0  0  0
   -1.5391    1.2515    0.2811 C   0  0  0  0  0  0  0  0  0  0  0  0
   -0.7702    0.0903    0.3292 C   0  0  0  0  0  0  0  0  0  0  0  0
    0.5599    0.2002    0.7487 O   0  0  0  0  0  0  0  0  0  0  0  0
    1.5034   -0.0676   -0.2305 C   0  0  0  0  0  0  0  0  0  0  0  0
    1.2788   -0.3553   -1.3978 O   0  0  0  0  0  0  0  0  0  0  0  0
    2.7542    0.0545    0.3108 N   0  0  0  0  0  0  0  0  0  0  0  0
    3.9424   -0.0287   -0.4932 C   0  0  0  0  0  0  0  0  0  0  0  0
  1  2  2  0
  2  3  1  0
  3  4  2  0
  4  5  1  0
  5  6  2  0
  6  7  1  0
  7  8  1  0
  8  9  2  0
  8 10  1  0
 10 11  1  0
  6  1  1  0
M  END
>  <target>  (388) 
-1.8030000000000002

$$$$

     RDKit          3D

  7  6  0  0  0  0  0  0  0  0999 V2000
    3.1727   -0.5765   -0.0939 C   0  0  0  0  0  0  0  0  0  0  0  0
    1.9084    0.1554   -0.5167 C   0  0  0  0  0  0  0  0  0  0  0  0
    0.6843   -0.3551    0.2488 C   0  0  0  0  0  0  0  0  0  0  0  0
   -0.5948    0.3989   -0.1369 C   0  0  0  0  0  0  0  0  0  0  0  0
   -0.8640    0.2076   -1.5239 O   0  0  0  0  0  0  0  0  0  0  0  0
   -1.7919   -0.0833    0.6903 C   0  0  0  0  0  0  0  0  0  0  0  0
   -3.0631    0.6934    0.3739 C   0  0  0  0  0  0  0  0  0  0  0  0
  1  2  1  0
  2  3  1  0
  3  4  1  0
  4  5  1  0
  4  6  1  0
  6  7  1  0
M  END
>  <target>  (389) 
-0.8

$$$$

     RDKit          3D

 15 17  0  0  0  0  0  0  0  0999 V2000
    3.7373   -0.5988    0.1761 C   0  0  0  0  0  0  0  0  0  0  0  0
    3.6763    0.7606   -0.1051 C   0  0  0  0  0  0  0  0  0  0  0  0
    2.4359    1.3836   -0.2511 C   0  0  0  0  0  0  0  0  0  0  0  0
    1.2303    0.6608   -0.1210 C   0  0  0  0  0  0  0  0  0  0  0  0
   -0.0450    1.2564   -0.2540 C   0  0  0  0  0  0  0  0  0  0  0  0
   -0.0827    2.6156   -0.4829 O   0  0  0  0  0  0  0  0  0  0  0  0
   -1.2474    0.5121   -0.1457 C   0  0  0  0  0  0  0  0  0  0  0  0
   -2.5411    1.0566   -0.3327 C   0  0  0  0  0  0  0  0  0  0  0  0
   -3.6896    0.2727   -0.2011 C   0  0  0  0  0  0  0  0  0  0  0  0
   -3.5751   -1.0747    0.1127 C   0  0  0  0  0  0  0  0  0  0  0  0
   -2.3125   -1.6402    0.2829 C   0  0  0  0  0  0  0  0  0  0  0  0
   -1.1472   -0.8658    0.1506 C   0  0  0  0  0  0  0  0  0  0  0  0
    0.1176   -1.4571    0.3041 C   0  0  0  0  0  0  0  0  0  0  0  0
    1.3029   -0.7181    0.1649 C   0  0  0  0  0  0  0  0  0  0  0  0
    2.5588   -1.3331    0.3106 C   0  0  0  0  0  0  0  0  0  0  0  0
  1  2  2  0
  2  3  1  0
  3  4  2  0
  4  5  1  0
  5  6  1  0
  5  7  2  0
  7  8  1  0
  8  9  2  0
  9 10  1  0
 10 11  2  0
 11 12  1  0
 12 13  2  0
 13 14  1  0
 14 15  2  0
 12  7  1  0
 14  4  1  0
 15  1  1  0
M  END
>  <target>  (390) 
-4.73

$$$$

     RDKit          3D

 15 17  0  0  0  0  0  0  0  0999 V2000
    4.4917    0.3689    0.8113 C   0  0  0  0  0  0  0  0  0  0  0  0
    3.0918   -0.1027    0.5516 C   0  0  0  0  0  0  0  0  0  0  0  0
    2.8517   -1.4115    0.1269 C   0  0  0  0  0  0  0  0  0  0  0  0
    1.5497   -1.8386   -0.1444 C   0  0  0  0  0  0  0  0  0  0  0  0
    0.4618   -0.9626   -0.0072 C   0  0  0  0  0  0  0  0  0  0  0  0
   -0.8527   -1.3790   -0.2768 C   0  0  0  0  0  0  0  0  0  0  0  0
   -1.9406   -0.5004   -0.1430 C   0  0  0  0  0  0  0  0  0  0  0  0
   -3.2554   -0.9156   -0.4122 C   0  0  0  0  0  0  0  0  0  0  0  0
   -4.3261   -0.0308   -0.2751 C   0  0  0  0  0  0  0  0  0  0  0  0
   -4.0965    1.2796    0.1325 C   0  0  0  0  0  0  0  0  0  0  0  0
   -2.7958    1.7071    0.4036 C   0  0  0  0  0  0  0  0  0  0  0  0
   -1.7077    0.8287    0.2704 C   0  0  0  0  0  0  0  0  0  0  0  0
   -0.3929    1.2442    0.5396 C   0  0  0  0  0  0  0  0  0  0  0  0
    0.6951    0.3651    0.4070 C   0  0  0  0  0  0  0  0  0  0  0  0
    2.0110    0.7806    0.6765 C   0  0  0  0  0  0  0  0  0  0  0  0
  1  2  1  0
  2  3  2  0
  3  4  1  0
  4  5  2  0
  5  6  1  0
  6  7  2  0
  7  8  1  0
  8  9  2  0
  9 10  1  0
 10 11  2  0
 11 12  1  0
 12 13  2  0
 13 14  1  0
 14 15  2  0
 15  2  1  0
 14  5  1  0
 12  7  1  0
M  END
>  <target>  (391) 
-6.96

$$$$

     RDKit          3D

  9  9  0  0  0  0  0  0  0  0999 V2000
   -2.4964   -0.6379    0.2804 C   0  0  0  0  0  0  0  0  0  0  0  0
   -1.2403    0.1413   -0.0062 C   0  0  0  0  0  0  0  0  0  0  0  0
   -1.3616    1.4778   -0.4171 C   0  0  0  0  0  0  0  0  0  0  0  0
   -0.2332    2.2440   -0.6897 C   0  0  0  0  0  0  0  0  0  0  0  0
    1.0331    1.6863   -0.5486 C   0  0  0  0  0  0  0  0  0  0  0  0
    1.1892    0.3528   -0.1396 C   0  0  0  0  0  0  0  0  0  0  0  0
    2.5844   -0.1955    0.0014 C   0  0  0  0  0  0  0  0  0  0  0  0
    0.0443   -0.4426    0.1058 C   0  0  0  0  0  0  0  0  0  0  0  0
    0.1936   -1.8782    0.5474 C   0  0  0  0  0  0  0  0  0  0  0  0
  1  2  1  0
  2  3  2  0
  3  4  1  0
  4  5  2  0
  5  6  1  0
  6  7  1  0
  6  8  2  0
  8  9  1  0
  8  2  1  0
M  END
>  <target>  (392) 
-3.2

$$$$

     RDKit          3D

 15 15  0  0  0  0  0  0  0  0999 V2000
    5.5388    0.5977   -1.4769 C   0  0  0  0  0  0  0  0  0  0  0  0
    4.5784    0.0999   -0.5310 N   0  0  0  0  0  0  0  0  0  0  0  0
    3.2309    0.2029   -0.7448 C   0  0  0  0  0  0  0  0  0  0  0  0
    2.7228    0.6166   -1.7776 O   0  0  0  0  0  0  0  0  0  0  0  0
    2.5598   -0.2198    0.3922 O   0  0  0  0  0  0  0  0  0  0  0  0
    1.1619   -0.1873    0.3184 C   0  0  0  0  0  0  0  0  0  0  0  0
    0.4700   -1.0169   -0.5566 C   0  0  0  0  0  0  0  0  0  0  0  0
   -0.9253   -0.9897   -0.5600 C   0  0  0  0  0  0  0  0  0  0  0  0
   -1.6391   -0.1553    0.3203 C   0  0  0  0  0  0  0  0  0  0  0  0
   -3.0523   -0.0939    0.3156 N   0  0  0  0  0  0  0  0  0  0  0  0
   -3.5336    0.7402   -0.7898 C   0  0  0  0  0  0  0  0  0  0  0  0
   -3.7032   -1.4016    0.4069 C   0  0  0  0  0  0  0  0  0  0  0  0
   -0.9179    0.6647    1.2179 C   0  0  0  0  0  0  0  0  0  0  0  0
   -1.6361    1.5686    2.1827 C   0  0  0  0  0  0  0  0  0  0  0  0
    0.4857    0.6378    1.2131 C   0  0  0  0  0  0  0  0  0  0  0  0
  1  2  1  0
  2  3  1  0
  3  4  2  0
  3  5  1  0
  5  6  1  0
  6  7  2  0
  7  8  1  0
  8  9  2  0
  9 10  1  0
 10 11  1  0
 10 12  1  0
  9 13  1  0
 13 14  1  0
 13 15  2  0
 15  6  1  0
M  END
>  <target>  (393) 
-2.36

$$$$

     RDKit          3D

 10  9  0  0  0  0  0  0  0  0999 V2000
    5.1094   -0.1362   -0.2640 C   0  0  0  0  0  0  0  0  0  0  0  0
    3.7857    0.6105   -0.3035 C   0  0  0  0  0  0  0  0  0  0  0  0
    2.6003   -0.3426   -0.1531 C   0  0  0  0  0  0  0  0  0  0  0  0
    1.2707    0.4124   -0.1935 C   0  0  0  0  0  0  0  0  0  0  0  0
    0.0844   -0.5414   -0.0429 C   0  0  0  0  0  0  0  0  0  0  0  0
   -1.2461    0.2140   -0.0838 C   0  0  0  0  0  0  0  0  0  0  0  0
   -2.4301   -0.7414    0.0707 C   0  0  0  0  0  0  0  0  0  0  0  0
   -3.7929   -0.0553   -0.0722 C   0  0  0  0  0  0  0  0  0  0  0  0
   -4.0725    0.9679    1.0193 C   0  0  0  0  0  0  0  0  0  0  0  0
   -4.8144   -1.0500    0.0021 O   0  0  0  0  0  0  0  0  0  0  0  0
  1  2  1  0
  2  3  1  0
  3  4  1  0
  4  5  1  0
  5  6  1  0
  6  7  1  0
  7  8  1  0
  8  9  1  0
  8 10  1  0
M  END
>  <target>  (394) 
-2.74

$$$$

     RDKit          3D

 20 21  0  0  0  0  0  0  0  0999 V2000
   -2.8824   -2.7265   -0.2520 C   0  0  0  0  0  0  0  0  0  0  0  0
   -1.9968   -1.5659   -0.2292 N   0  0  0  0  0  0  0  0  0  0  0  0
   -0.7113   -1.7441   -0.7572 C   0  0  0  0  0  0  0  0  0  0  0  0
   -0.4077   -2.7063   -1.4585 O   0  0  0  0  0  0  0  0  0  0  0  0
    0.2111   -0.8067   -0.3631 N   0  0  0  0  0  0  0  0  0  0  0  0
    1.6529   -0.8516   -0.6609 C   0  0  0  0  0  0  0  0  0  0  0  0
    2.2734   -2.1055   -0.0060 C   0  0  0  0  0  0  0  0  0  0  0  0
    1.9208   -0.9274   -2.1812 C   0  0  0  0  0  0  0  0  0  0  0  0
    2.2542    0.4693   -0.1245 C   0  0  0  0  0  0  0  0  0  0  0  0
    1.7980    1.7008   -0.6407 C   0  0  0  0  0  0  0  0  0  0  0  0
    2.2999    2.9189   -0.1763 C   0  0  0  0  0  0  0  0  0  0  0  0
    3.2693    2.9359    0.8200 C   0  0  0  0  0  0  0  0  0  0  0  0
    3.7324    1.7363    1.3513 C   0  0  0  0  0  0  0  0  0  0  0  0
    3.2292    0.5162    0.8865 C   0  0  0  0  0  0  0  0  0  0  0  0
   -2.5451   -0.3304    0.2520 C   0  0  0  0  0  0  0  0  0  0  0  0
   -3.5525   -0.3257    1.2292 C   0  0  0  0  0  0  0  0  0  0  0  0
   -4.0997    0.8742    1.6962 C   0  0  0  0  0  0  0  0  0  0  0  0
   -3.6599    2.0899    1.1819 C   0  0  0  0  0  0  0  0  0  0  0  0
   -2.6807    2.1054    0.1941 C   0  0  0  0  0  0  0  0  0  0  0  0
   -2.1349    0.9049   -0.2707 C   0  0  0  0  0  0  0  0  0  0  0  0
  1  2  1  0
  2  3  1  0
  3  4  2  0
  3  5  1  0
  5  6  1  0
  6  7  1  0
  6  8  1  0
  6  9  1  0
  9 10  2  0
 10 11  1  0
 11 12  2  0
 12 13  1  0
 13 14  2  0
  2 15  1  0
 15 16  2  0
 16 17  1  0
 17 18  2  0
 18 19  1  0
 19 20  2  0
 14  9  1  0
 20 15  1  0
M  END
>  <target>  (395) 
-3.35

$$$$

     RDKit          3D

  7  6  0  0  0  0  0  0  0  0999 V2000
   -3.1538   -0.0993    0.0151 C   0  0  0  0  0  0  0  0  0  0  0  0
   -1.8136    0.6165    0.0564 C   0  0  0  0  0  0  0  0  0  0  0  0
   -0.6528   -0.3590   -0.1150 C   0  0  0  0  0  0  0  0  0  0  0  0
    0.7017    0.3313   -0.0776 C   0  0  0  0  0  0  0  0  0  0  0  0
    0.8157    1.5464    0.0757 O   0  0  0  0  0  0  0  0  0  0  0  0
    1.9059   -0.5814   -0.2424 C   0  0  0  0  0  0  0  0  0  0  0  0
    3.2233    0.1714   -0.1955 C   0  0  0  0  0  0  0  0  0  0  0  0
  1  2  1  0
  2  3  1  0
  3  4  1  0
  4  5  2  0
  4  6  1  0
  6  7  1  0
M  END
>  <target>  (396) 
-0.83

$$$$

     RDKit          3D

 11 11  0  0  0  0  0  0  0  0999 V2000
   -2.6991    0.7004   -0.0439 O   0  0  0  0  0  0  0  0  0  0  0  0
   -1.3799    0.3343   -0.0236 C   0  0  0  0  0  0  0  0  0  0  0  0
   -1.0409   -1.0204   -0.0774 C   0  0  0  0  0  0  0  0  0  0  0  0
   -2.3682   -2.3717   -0.1784 Br  0  0  0  0  0  0  0  0  0  0  0  0
    0.3009   -1.4115   -0.0575 C   0  0  0  0  0  0  0  0  0  0  0  0
    1.3098   -0.4448    0.0164 C   0  0  0  0  0  0  0  0  0  0  0  0
    2.6864   -0.8445    0.0368 C   0  0  0  0  0  0  0  0  0  0  0  0
    3.8015   -1.1639    0.0536 N   0  0  0  0  0  0  0  0  0  0  0  0
    0.9745    0.9124    0.0704 C   0  0  0  0  0  0  0  0  0  0  0  0
   -0.3679    1.2964    0.0502 C   0  0  0  0  0  0  0  0  0  0  0  0
   -0.7891    3.1435    0.1247 Br  0  0  0  0  0  0  0  0  0  0  0  0
  1  2  1  0
  2  3  2  0
  3  4  1  0
  3  5  1  0
  5  6  2  0
  6  7  1  0
  7  8  3  0
  6  9  1  0
  9 10  2  0
 10 11  1  0
 10  2  1  0
M  END
>  <target>  (397) 
-3.33

$$$$

     RDKit          3D

 14 15  0  0  0  0  0  0  0  0999 V2000
    5.2470   -0.0444    0.0249 Cl  0  0  0  0  0  0  0  0  0  0  0  0
    3.5207    0.0063   -0.0047 C   0  0  0  0  0  0  0  0  0  0  0  0
    2.8283   -1.0236    0.6344 C   0  0  0  0  0  0  0  0  0  0  0  0
    1.4299   -1.0323    0.6408 C   0  0  0  0  0  0  0  0  0  0  0  0
    0.6962   -0.0148    0.0096 C   0  0  0  0  0  0  0  0  0  0  0  0
    1.4086    1.0145   -0.6292 C   0  0  0  0  0  0  0  0  0  0  0  0
    2.8089    1.0286   -0.6382 C   0  0  0  0  0  0  0  0  0  0  0  0
    3.5935    2.3382   -1.4486 Cl  0  0  0  0  0  0  0  0  0  0  0  0
   -0.7758   -0.0260    0.0163 C   0  0  0  0  0  0  0  0  0  0  0  0
   -1.4935   -0.1268    1.2199 C   0  0  0  0  0  0  0  0  0  0  0  0
   -2.8911   -0.1365    1.2272 C   0  0  0  0  0  0  0  0  0  0  0  0
   -3.5952   -0.0465    0.0293 C   0  0  0  0  0  0  0  0  0  0  0  0
   -2.9036    0.0537   -1.1749 C   0  0  0  0  0  0  0  0  0  0  0  0
   -1.5060    0.0644   -1.1807 C   0  0  0  0  0  0  0  0  0  0  0  0
  1  2  1  0
  2  3  2  0
  3  4  1  0
  4  5  2  0
  5  6  1  0
  6  7  2  0
  7  8  1  0
  5  9  1  0
  9 10  2  0
 10 11  1  0
 11 12  2  0
 12 13  1  0
 13 14  2  0
  7  2  1  0
 14  9  1  0
M  END
>  <target>  (398) 
-6.39

$$$$

     RDKit          3D

 21 23  0  0  0  0  0  0  0  0999 V2000
   -3.5864   -2.9550   -0.0656 C   0  0  0  0  0  0  0  0  0  0  0  0
   -2.4719   -2.0133    0.0092 N   0  0  0  0  0  0  0  0  0  0  0  0
   -1.1817   -2.5534   -0.0294 C   0  0  0  0  0  0  0  0  0  0  0  0
   -0.9838   -3.7685    0.1002 O   0  0  0  0  0  0  0  0  0  0  0  0
    0.0076   -1.6422   -0.3363 C   0  0  0  0  0  0  0  0  0  0  0  0
    0.7422   -1.4103    0.8572 O   0  0  0  0  0  0  0  0  0  0  0  0
    1.8073   -0.6229    0.7118 C   0  0  0  0  0  0  0  0  0  0  0  0
    2.1608   -0.0925   -0.4349 N   0  0  0  0  0  0  0  0  0  0  0  0
    3.2868    0.6930   -0.2550 C   0  0  0  0  0  0  0  0  0  0  0  0
    3.9532    1.4251   -1.2587 C   0  0  0  0  0  0  0  0  0  0  0  0
    5.0846    2.1813   -0.9342 C   0  0  0  0  0  0  0  0  0  0  0  0
    5.5583    2.2158    0.3736 C   0  0  0  0  0  0  0  0  0  0  0  0
    4.9162    1.4979    1.3876 C   0  0  0  0  0  0  0  0  0  0  0  0
    3.7806    0.7425    1.0506 C   0  0  0  0  0  0  0  0  0  0  0  0
    2.7837   -0.2333    2.0592 S   0  0  0  0  0  0  0  0  0  0  0  0
   -2.7983   -0.6272    0.1118 C   0  0  0  0  0  0  0  0  0  0  0  0
   -3.9099   -0.1086   -0.5699 C   0  0  0  0  0  0  0  0  0  0  0  0
   -4.2563    1.2416   -0.4595 C   0  0  0  0  0  0  0  0  0  0  0  0
   -3.5074    2.0906    0.3493 C   0  0  0  0  0  0  0  0  0  0  0  0
   -2.4171    1.5868    1.0527 C   0  0  0  0  0  0  0  0  0  0  0  0
   -2.0722    0.2357    0.9416 C   0  0  0  0  0  0  0  0  0  0  0  0
  1  2  1  0
  2  3  1  0
  3  4  2  0
  3  5  1  0
  5  6  1  0
  6  7  1  0
  7  8  2  0
  8  9  1  0
  9 10  2  0
 10 11  1  0
 11 12  2  0
 12 13  1  0
 13 14  2  0
 14 15  1  0
  2 16  1  0
 16 17  2  0
 17 18  1  0
 18 19  2  0
 19 20  1  0
 20 21  2  0
 15  7  1  0
 14  9  1  0
 21 16  1  0
M  END
>  <target>  (399) 
-4.873

$$$$

     RDKit          3D

 11 12  0  0  0  0  0  0  0  0999 V2000
   -1.1832    2.3574    0.4310 O   0  0  0  0  0  0  0  0  0  0  0  0
   -1.0942    1.0215    0.1359 C   0  0  0  0  0  0  0  0  0  0  0  0
   -2.2534    0.2967   -0.1296 C   0  0  0  0  0  0  0  0  0  0  0  0
   -2.1520   -1.0573   -0.4277 C   0  0  0  0  0  0  0  0  0  0  0  0
   -0.8966   -1.6717   -0.4572 C   0  0  0  0  0  0  0  0  0  0  0  0
    0.2722   -0.9681   -0.1957 C   0  0  0  0  0  0  0  0  0  0  0  0
    1.4485   -1.6201   -0.2407 N   0  0  0  0  0  0  0  0  0  0  0  0
    2.5738   -0.9176    0.0169 C   0  0  0  0  0  0  0  0  0  0  0  0
    2.5893    0.4286    0.3234 C   0  0  0  0  0  0  0  0  0  0  0  0
    1.3725    1.0970    0.3685 C   0  0  0  0  0  0  0  0  0  0  0  0
    0.1752    0.4064    0.1074 C   0  0  0  0  0  0  0  0  0  0  0  0
  1  2  1  0
  2  3  2  0
  3  4  1  0
  4  5  2  0
  5  6  1  0
  6  7  2  0
  7  8  1  0
  8  9  2  0
  9 10  1  0
 10 11  2  0
 11  2  1  0
 11  6  1  0
M  END
>  <target>  (400) 
-2.54

$$$$

     RDKit          3D

 16 17  0  0  0  0  0  0  0  0999 V2000
   -2.3491    2.3158    1.0074 C   0  0  0  0  0  0  0  0  0  0  0  0
   -2.5510    0.8597    0.6740 C   0  0  0  0  0  0  0  0  0  0  0  0
   -1.5369   -0.0256    0.5133 C   0  0  0  0  0  0  0  0  0  0  0  0
   -1.7824   -1.6812   -0.0060 S   0  0  0  0  0  0  0  0  0  0  0  0
   -3.5257   -1.6064   -0.4822 C   0  0  0  0  0  0  0  0  0  0  0  0
   -4.2727   -0.8000    0.5580 C   0  0  0  0  0  0  0  0  0  0  0  0
   -3.8990    0.5766    0.5093 O   0  0  0  0  0  0  0  0  0  0  0  0
   -0.0940    0.3744    0.7917 C   0  0  0  0  0  0  0  0  0  0  0  0
    0.1734    1.2598    1.5969 O   0  0  0  0  0  0  0  0  0  0  0  0
    0.8248   -0.3597    0.0650 N   0  0  0  0  0  0  0  0  0  0  0  0
    2.2282   -0.2470    0.0633 C   0  0  0  0  0  0  0  0  0  0  0  0
    2.9392   -1.1483   -0.7403 C   0  0  0  0  0  0  0  0  0  0  0  0
    4.3346   -1.1036   -0.8014 C   0  0  0  0  0  0  0  0  0  0  0  0
    5.0329   -0.1555   -0.0594 C   0  0  0  0  0  0  0  0  0  0  0  0
    4.3350    0.7455    0.7412 C   0  0  0  0  0  0  0  0  0  0  0  0
    2.9380    0.7006    0.8022 C   0  0  0  0  0  0  0  0  0  0  0  0
  1  2  1  0
  2  3  2  0
  3  4  1  0
  4  5  1  0
  5  6  1  0
  6  7  1  0
  3  8  1  0
  8  9  2  0
  8 10  1  0
 10 11  1  0
 11 12  2  0
 12 13  1  0
 13 14  2  0
 14 15  1  0
 15 16  2  0
  7  2  1  0
 16 11  1  0
M  END
>  <target>  (401) 
-3.14

$$$$

     RDKit          3D

 16 17  0  0  0  0  0  0  0  0999 V2000
    5.1267   -0.4923   -0.3388 C   0  0  0  0  0  0  0  0  0  0  0  0
    3.6301   -0.7442   -0.3008 C   0  0  0  0  0  0  0  0  0  0  0  0
    2.9830    0.4936   -0.0082 O   0  0  0  0  0  0  0  0  0  0  0  0
    1.6162    0.4848    0.0692 C   0  0  0  0  0  0  0  0  0  0  0  0
    1.0506    1.7275    0.3531 C   0  0  0  0  0  0  0  0  0  0  0  0
   -0.3356    1.8848    0.4651 C   0  0  0  0  0  0  0  0  0  0  0  0
   -1.1771    0.7709    0.2890 C   0  0  0  0  0  0  0  0  0  0  0  0
   -2.5601    0.7788    0.3708 N   0  0  0  0  0  0  0  0  0  0  0  0
   -3.0002   -0.4453    0.1498 C   0  0  0  0  0  0  0  0  0  0  0  0
   -1.8415   -1.6507   -0.1616 S   0  0  0  0  0  0  0  0  0  0  0  0
   -0.5952   -0.4686    0.0050 C   0  0  0  0  0  0  0  0  0  0  0  0
    0.7985   -0.6352   -0.1095 C   0  0  0  0  0  0  0  0  0  0  0  0
   -4.7139   -0.9149    0.1500 S   0  0  0  0  0  0  0  0  0  0  0  0
   -5.5932    0.4779    0.5444 N   0  0  0  0  0  0  0  0  0  0  0  0
   -5.0366   -1.2638   -1.2141 O   0  0  0  0  0  0  0  0  0  0  0  0
   -4.8807   -1.8233    1.2622 O   0  0  0  0  0  0  0  0  0  0  0  0
  1  2  1  0
  2  3  1  0
  3  4  1  0
  4  5  2  0
  5  6  1  0
  6  7  2  0
  7  8  1  0
  8  9  2  0
  9 10  1  0
 10 11  1  0
 11 12  2  0
  9 13  1  0
 13 14  1  0
 13 15  2  0
 13 16  2  0
 11  7  1  0
 12  4  1  0
M  END
>  <target>  (402) 
-3.81

$$$$

     RDKit          3D

 12 12  0  0  0  0  0  0  0  0999 V2000
   -2.5316    0.3166    0.1148 O   0  0  0  0  0  0  0  0  0  0  0  0
   -1.1651    0.1772    0.0550 C   0  0  0  0  0  0  0  0  0  0  0  0
   -0.3606    1.3230    0.1054 C   0  0  0  0  0  0  0  0  0  0  0  0
   -1.1231    2.8774    0.2417 Cl  0  0  0  0  0  0  0  0  0  0  0  0
    1.0369    1.1957    0.0454 C   0  0  0  0  0  0  0  0  0  0  0  0
    2.0420    2.6161    0.1076 Cl  0  0  0  0  0  0  0  0  0  0  0  0
    1.6196   -0.0837   -0.0651 C   0  0  0  0  0  0  0  0  0  0  0  0
    3.3532   -0.2474   -0.1400 Cl  0  0  0  0  0  0  0  0  0  0  0  0
    0.8043   -1.2318   -0.1153 C   0  0  0  0  0  0  0  0  0  0  0  0
    1.5118   -2.8154   -0.2516 Cl  0  0  0  0  0  0  0  0  0  0  0  0
   -0.5901   -1.0947   -0.0547 C   0  0  0  0  0  0  0  0  0  0  0  0
   -1.6546   -2.4654   -0.1113 Cl  0  0  0  0  0  0  0  0  0  0  0  0
  1  2  1  0
  2  3  2  0
  3  4  1  0
  3  5  1  0
  5  6  1  0
  5  7  2  0
  7  8  1  0
  7  9  1  0
  9 10  1  0
  9 11  2  0
 11 12  1  0
 11  2  1  0
M  END
>  <target>  (403) 
-4.28

$$$$

     RDKit          3D

  3  2  0  0  0  0  0  0  0  0999 V2000
   -1.3686    1.0074   -0.0534 Cl  0  0  0  0  0  0  0  0  0  0  0  0
   -0.0579   -0.1680    0.0058 C   0  0  0  0  0  0  0  0  0  0  0  0
    1.6546    0.7331   -0.0098 Br  0  0  0  0  0  0  0  0  0  0  0  0
  1  2  1  0
  2  3  1  0
M  END
>  <target>  (404) 
-0.89

$$$$

     RDKit          3D

 14 14  0  0  0  0  0  0  0  0999 V2000
   -2.1630   -1.8627   -0.7976 C   0  0  0  0  0  0  0  0  0  0  0  0
   -0.9073   -1.0514   -1.0989 C   0  0  0  0  0  0  0  0  0  0  0  0
   -0.5029   -0.0067   -0.0130 C   0  0  0  0  0  0  0  0  0  0  0  0
   -1.6650    0.9834    0.2568 C   0  0  0  0  0  0  0  0  0  0  0  0
   -1.3271    2.1162    1.2261 C   0  0  0  0  0  0  0  0  0  0  0  0
   -0.1264   -0.7589    1.2478 C   0  0  0  0  0  0  0  0  0  0  0  0
   -0.8681   -0.9057    2.2152 O   0  0  0  0  0  0  0  0  0  0  0  0
    1.1045   -1.3437    1.2313 N   0  0  0  0  0  0  0  0  0  0  0  0
    2.1874   -0.8113    0.6004 C   0  0  0  0  0  0  0  0  0  0  0  0
    3.3133   -1.1355    0.9741 O   0  0  0  0  0  0  0  0  0  0  0  0
    1.9430    0.1279   -0.3816 N   0  0  0  0  0  0  0  0  0  0  0  0
    3.0957    0.7418   -1.0172 C   0  0  0  0  0  0  0  0  0  0  0  0
    0.7052    0.7234   -0.5925 C   0  0  0  0  0  0  0  0  0  0  0  0
    0.5758    1.7428   -1.2736 O   0  0  0  0  0  0  0  0  0  0  0  0
  1  2  1  0
  2  3  1  0
  3  4  1  0
  4  5  1  0
  3  6  1  0
  6  7  2  0
  6  8  1  0
  8  9  1  0
  9 10  2  0
  9 11  1  0
 11 12  1  0
 11 13  1  0
 13 14  2  0
 13  3  1  0
M  END
>  <target>  (405) 
-2.23

$$$$

     RDKit          3D

 27 30  0  0  0  0  0  0  0  0999 V2000
    6.9109   -1.4845    2.1654 C   0  0  0  0  0  0  0  0  0  0  0  0
    6.1490   -0.8046    1.0704 C   0  0  0  0  0  0  0  0  0  0  0  0
    6.4156    0.3006    0.6186 O   0  0  0  0  0  0  0  0  0  0  0  0
    5.1322   -1.6021    0.6389 O   0  0  0  0  0  0  0  0  0  0  0  0
    4.2958   -0.9836   -0.3368 C   0  0  0  0  0  0  0  0  0  0  0  0
    3.3649    0.0696    0.2676 C   0  0  0  0  0  0  0  0  0  0  0  0
    3.1750    0.1454    1.4833 O   0  0  0  0  0  0  0  0  0  0  0  0
    2.6406    0.9809   -0.7272 C   0  0  0  0  0  0  0  0  0  0  0  0
    2.5029    2.4181   -0.1650 C   0  0  0  0  0  0  0  0  0  0  0  0
    1.0172    2.6285    0.1734 C   0  0  0  0  0  0  0  0  0  0  0  0
    0.4114    1.2322    0.0992 C   0  0  0  0  0  0  0  0  0  0  0  0
   -1.1103    1.1031   -0.0502 C   0  0  0  0  0  0  0  0  0  0  0  0
   -1.8465    1.8061    1.0981 C   0  0  0  0  0  0  0  0  0  0  0  0
   -3.3559    1.6575    0.9586 C   0  0  0  0  0  0  0  0  0  0  0  0
   -3.7791    0.2116    0.8460 C   0  0  0  0  0  0  0  0  0  0  0  0
   -4.7689   -0.2522    1.6302 C   0  0  0  0  0  0  0  0  0  0  0  0
   -5.3113   -1.6219    1.4784 C   0  0  0  0  0  0  0  0  0  0  0  0
   -6.1966   -2.0094    2.2367 O   0  0  0  0  0  0  0  0  0  0  0  0
   -4.8074   -2.4582    0.3326 C   0  0  0  0  0  0  0  0  0  0  0  0
   -3.3424   -2.1522    0.0533 C   0  0  0  0  0  0  0  0  0  0  0  0
   -3.0512   -0.6428   -0.2004 C   0  0  0  0  0  0  0  0  0  0  0  0
   -3.5903   -0.2567   -1.5963 C   0  0  0  0  0  0  0  0  0  0  0  0
   -1.4948   -0.4092   -0.0824 C   0  0  0  0  0  0  0  0  0  0  0  0
   -0.6601   -1.1965   -1.1285 C   0  0  0  0  0  0  0  0  0  0  0  0
    0.8548   -0.9408   -1.0233 C   0  0  0  0  0  0  0  0  0  0  0  0
    1.1854    0.5591   -1.0520 C   0  0  0  0  0  0  0  0  0  0  0  0
    0.8444    1.1257   -2.4579 C   0  0  0  0  0  0  0  0  0  0  0  0
  1  2  1  0
  2  3  2  0
  2  4  1  0
  4  5  1  0
  5  6  1  0
  6  7  2  0
  6  8  1  0
  8  9  1  0
  9 10  1  0
 10 11  1  0
 11 12  1  0
 12 13  1  0
 13 14  1  0
 14 15  1  0
 15 16  2  0
 16 17  1  0
 17 18  2  0
 17 19  1  0
 19 20  1  0
 20 21  1  0
 21 22  1  0
 21 23  1  0
 23 24  1  0
 24 25  1  0
 25 26  1  0
 26 27  1  0
 21 15  1  0
 23 12  1  0
 26  8  1  0
 26 11  1  0
M  END
>  <target>  (406) 
-4.63

$$$$

     RDKit          3D

 11 11  0  0  0  0  0  0  0  0999 V2000
    3.6596    0.2899    1.4630 N   0  0  0  0  0  0  0  0  0  0  0  0
    3.0185    0.0818    0.2855 C   0  0  0  0  0  0  0  0  0  0  0  0
    3.6244   -0.0548   -0.7654 O   0  0  0  0  0  0  0  0  0  0  0  0
    1.6661    0.0537    0.4369 N   0  0  0  0  0  0  0  0  0  0  0  0
    0.8334   -0.2792   -0.6950 C   0  0  0  0  0  0  0  0  0  0  0  0
   -0.6235   -0.1621   -0.3367 C   0  0  0  0  0  0  0  0  0  0  0  0
   -1.3733   -1.3004   -0.0086 C   0  0  0  0  0  0  0  0  0  0  0  0
   -2.7186   -1.1831    0.3451 C   0  0  0  0  0  0  0  0  0  0  0  0
   -3.3248    0.0715    0.3808 C   0  0  0  0  0  0  0  0  0  0  0  0
   -2.5867    1.2107    0.0655 C   0  0  0  0  0  0  0  0  0  0  0  0
   -1.2417    1.0957   -0.2885 C   0  0  0  0  0  0  0  0  0  0  0  0
  1  2  1  0
  2  3  2  0
  2  4  1  0
  4  5  1  0
  5  6  1  0
  6  7  2  0
  7  8  1  0
  8  9  2  0
  9 10  1  0
 10 11  2  0
 11  6  1  0
M  END
>  <target>  (407) 
-0.95

$$$$

     RDKit          3D

 14 14  0  0  0  0  0  0  0  0999 V2000
    3.9753    1.4325   -0.8811 C   0  0  0  0  0  0  0  0  0  0  0  0
    2.9870    0.3799   -0.7109 N   0  0  0  0  0  0  0  0  0  0  0  0
    3.5298   -0.9333   -0.3860 C   0  0  0  0  0  0  0  0  0  0  0  0
    1.6900    0.7848   -0.3770 C   0  0  0  0  0  0  0  0  0  0  0  0
    1.4180    1.9641   -0.1679 O   0  0  0  0  0  0  0  0  0  0  0  0
    0.7765   -0.2459   -0.3471 N   0  0  0  0  0  0  0  0  0  0  0  0
   -0.5588   -0.1929    0.1034 C   0  0  0  0  0  0  0  0  0  0  0  0
   -1.0805    0.8603    0.8539 C   0  0  0  0  0  0  0  0  0  0  0  0
   -2.4129    0.8382    1.2822 C   0  0  0  0  0  0  0  0  0  0  0  0
   -3.2502   -0.2423    0.9749 C   0  0  0  0  0  0  0  0  0  0  0  0
   -4.6755   -0.2350    1.4488 C   0  0  0  0  0  0  0  0  0  0  0  0
   -2.7175   -1.3034    0.2308 C   0  0  0  0  0  0  0  0  0  0  0  0
   -3.6736   -2.6818   -0.1870 Cl  0  0  0  0  0  0  0  0  0  0  0  0
   -1.3850   -1.2803   -0.1976 C   0  0  0  0  0  0  0  0  0  0  0  0
  1  2  1  0
  2  3  1  0
  2  4  1  0
  4  5  2  0
  4  6  1  0
  6  7  1  0
  7  8  2  0
  8  9  1  0
  9 10  2  0
 10 11  1  0
 10 12  1  0
 12 13  1  0
 12 14  2  0
 14  7  1  0
M  END
>  <target>  (408) 
-3.483

$$$$

     RDKit          3D

 15 15  0  0  0  0  0  0  0  0999 V2000
   -3.2931   -0.0713    1.1149 C   0  0  0  0  0  0  0  0  0  0  0  0
   -2.4343   -0.9558    0.3919 O   0  0  0  0  0  0  0  0  0  0  0  0
   -2.1605   -0.3647   -0.8759 N   0  0  0  0  0  0  0  0  0  0  0  0
   -2.9083   -1.0312   -1.9237 C   0  0  0  0  0  0  0  0  0  0  0  0
   -0.8015   -0.1043   -1.1140 C   0  0  0  0  0  0  0  0  0  0  0  0
   -0.3614    0.0814   -2.2449 O   0  0  0  0  0  0  0  0  0  0  0  0
   -0.0655   -0.0620    0.0539 N   0  0  0  0  0  0  0  0  0  0  0  0
    1.2982    0.2235    0.2252 C   0  0  0  0  0  0  0  0  0  0  0  0
    2.1390    0.6429   -0.8069 C   0  0  0  0  0  0  0  0  0  0  0  0
    3.4891    0.9147   -0.5569 C   0  0  0  0  0  0  0  0  0  0  0  0
    4.0108    0.7724    0.7296 C   0  0  0  0  0  0  0  0  0  0  0  0
    5.6843    1.1255    0.9668 Cl  0  0  0  0  0  0  0  0  0  0  0  0
    3.1746    0.3570    1.7691 C   0  0  0  0  0  0  0  0  0  0  0  0
    3.7407    0.1593    3.3905 Cl  0  0  0  0  0  0  0  0  0  0  0  0
    1.8244    0.0857    1.5152 C   0  0  0  0  0  0  0  0  0  0  0  0
  1  2  1  0
  2  3  1  0
  3  4  1  0
  3  5  1  0
  5  6  2  0
  5  7  1  0
  7  8  1  0
  8  9  2  0
  9 10  1  0
 10 11  2  0
 11 12  1  0
 11 13  1  0
 13 14  1  0
 13 15  2  0
 15  8  1  0
M  END
>  <target>  (409) 
-3.592

$$$$

     RDKit          3D

  8  8  0  0  0  0  0  0  0  0999 V2000
    2.8008    0.6300    0.0116 O   0  0  0  0  0  0  0  0  0  0  0  0
    1.5025    0.3438   -0.5166 C   0  0  0  0  0  0  0  0  0  0  0  0
    0.5209    1.3825    0.0300 C   0  0  0  0  0  0  0  0  0  0  0  0
   -0.8216    1.3704   -0.6915 C   0  0  0  0  0  0  0  0  0  0  0  0
   -1.8424    0.3738   -0.1512 C   0  0  0  0  0  0  0  0  0  0  0  0
   -1.3233   -0.9955    0.2769 C   0  0  0  0  0  0  0  0  0  0  0  0
   -0.2212   -1.5762   -0.6030 C   0  0  0  0  0  0  0  0  0  0  0  0
    1.1705   -1.1095   -0.1845 C   0  0  0  0  0  0  0  0  0  0  0  0
  1  2  1  0
  2  3  1  0
  3  4  1  0
  4  5  1  0
  5  6  1  0
  6  7  1  0
  7  8  1  0
  8  2  1  0
M  END
>  <target>  (410) 
-0.88

$$$$

     RDKit          3D

 21 21  0  0  0  0  0  0  0  0999 V2000
   -5.0836    1.8263    0.0465 C   0  0  0  0  0  0  0  0  0  0  0  0
   -4.8126    0.5753    1.2740 S   0  0  0  0  0  0  0  0  0  0  0  0
   -5.6887   -0.5431    0.9780 O   0  0  0  0  0  0  0  0  0  0  0  0
   -4.8361    1.2065    2.5801 O   0  0  0  0  0  0  0  0  0  0  0  0
   -3.1443    0.0496    0.9639 C   0  0  0  0  0  0  0  0  0  0  0  0
   -2.9081   -1.0695    0.1636 C   0  0  0  0  0  0  0  0  0  0  0  0
   -1.5953   -1.4843   -0.0689 C   0  0  0  0  0  0  0  0  0  0  0  0
   -0.5148   -0.7888    0.4975 C   0  0  0  0  0  0  0  0  0  0  0  0
   -0.7758    0.3215    1.3189 C   0  0  0  0  0  0  0  0  0  0  0  0
   -2.0859    0.7396    1.5567 C   0  0  0  0  0  0  0  0  0  0  0  0
    0.9060   -1.2464    0.2376 C   0  0  0  0  0  0  0  0  0  0  0  0
    1.5267   -1.5619    1.4982 O   0  0  0  0  0  0  0  0  0  0  0  0
    1.7933   -0.2055   -0.5035 C   0  0  0  0  0  0  0  0  0  0  0  0
    1.3438   -0.0588   -1.9738 C   0  0  0  0  0  0  0  0  0  0  0  0
    1.7087    1.2060   -2.5211 O   0  0  0  0  0  0  0  0  0  0  0  0
    3.2059   -0.6282   -0.3787 N   0  0  0  0  0  0  0  0  0  0  0  0
    4.2808    0.1208   -0.8145 C   0  0  0  0  0  0  0  0  0  0  0  0
    4.1333    1.1137   -1.5287 O   0  0  0  0  0  0  0  0  0  0  0  0
    5.6665   -0.3800   -0.4017 C   0  0  0  0  0  0  0  0  0  0  0  0
    6.0123   -1.8958   -1.2576 Cl  0  0  0  0  0  0  0  0  0  0  0  0
    5.7155   -0.6260    1.3579 Cl  0  0  0  0  0  0  0  0  0  0  0  0
  1  2  1  0
  2  3  2  0
  2  4  2  0
  2  5  1  0
  5  6  2  0
  6  7  1  0
  7  8  2  0
  8  9  1  0
  9 10  2  0
  8 11  1  0
 11 12  1  0
 11 13  1  0
 13 14  1  0
 14 15  1  0
 13 16  1  0
 16 17  1  0
 17 18  2  0
 17 19  1  0
 19 20  1  0
 19 21  1  0
 10  5  1  0
M  END
>  <target>  (411) 
-2.154

$$$$

     RDKit          3D

 16 16  0  0  0  0  0  0  0  0999 V2000
   -3.7354   -0.1805    1.8619 C   0  0  0  0  0  0  0  0  0  0  0  0
   -2.9481    0.1928    0.6144 C   0  0  0  0  0  0  0  0  0  0  0  0
   -1.4975   -0.2939    0.7041 C   0  0  0  0  0  0  0  0  0  0  0  0
   -0.6140    0.1723   -0.4874 C   0  0  0  0  0  0  0  0  0  0  0  0
   -1.1027   -0.4667   -1.7993 C   0  0  0  0  0  0  0  0  0  0  0  0
    0.9190   -0.0352   -0.1908 C   0  0  0  0  0  0  0  0  0  0  0  0
    1.8423    0.3208   -1.4006 C   0  0  0  0  0  0  0  0  0  0  0  0
    1.6628    1.7215   -1.9788 C   0  0  0  0  0  0  0  0  0  0  0  0
    1.3478    0.8876    0.9566 C   0  0  0  0  0  0  0  0  0  0  0  0
    0.8036    1.9587    1.2174 O   0  0  0  0  0  0  0  0  0  0  0  0
    2.4499    0.5001    1.6723 N   0  0  0  0  0  0  0  0  0  0  0  0
    2.9328   -0.7674    1.7354 C   0  0  0  0  0  0  0  0  0  0  0  0
    4.1770   -1.1675    2.7610 S   0  0  0  0  0  0  0  0  0  0  0  0
    2.3367   -1.7021    0.9502 N   0  0  0  0  0  0  0  0  0  0  0  0
    1.2442   -1.4929    0.1477 C   0  0  0  0  0  0  0  0  0  0  0  0
    0.6475   -2.4625   -0.3133 O   0  0  0  0  0  0  0  0  0  0  0  0
  1  2  1  0
  2  3  1  0
  3  4  1  0
  4  5  1  0
  4  6  1  0
  6  7  1  0
  7  8  1  0
  6  9  1  0
  9 10  2  0
  9 11  1  0
 11 12  1  0
 12 13  2  0
 12 14  1  0
 14 15  1  0
 15 16  2  0
 15  6  1  0
M  END
>  <target>  (412) 
-3.36

$$$$

     RDKit          3D

 13 13  0  0  0  0  0  0  0  0999 V2000
    3.2417   -0.2331   -1.0738 C   0  0  0  0  0  0  0  0  0  0  0  0
    3.0771    0.9108   -0.1091 C   0  0  0  0  0  0  0  0  0  0  0  0
    4.0455    1.5932    0.2338 O   0  0  0  0  0  0  0  0  0  0  0  0
    1.8538    1.2146    0.4045 N   0  0  0  0  0  0  0  0  0  0  0  0
    0.6831    0.5701    0.1366 C   0  0  0  0  0  0  0  0  0  0  0  0
    0.4420   -0.4567   -0.6447 N   0  0  0  0  0  0  0  0  0  0  0  0
   -0.8966   -0.8057   -0.6360 N   0  0  0  0  0  0  0  0  0  0  0  0
   -1.5843   -0.0109    0.1595 C   0  0  0  0  0  0  0  0  0  0  0  0
   -0.6814    1.2025    0.9478 S   0  0  0  0  0  0  0  0  0  0  0  0
   -3.3167   -0.1162    0.4518 S   0  0  0  0  0  0  0  0  0  0  0  0
   -3.9164   -1.4028   -0.4620 N   0  0  0  0  0  0  0  0  0  0  0  0
   -3.4572   -0.4867    1.8414 O   0  0  0  0  0  0  0  0  0  0  0  0
   -3.8815    1.0925   -0.1033 O   0  0  0  0  0  0  0  0  0  0  0  0
  1  2  1  0
  2  3  2  0
  2  4  1  0
  4  5  1  0
  5  6  2  0
  6  7  1  0
  7  8  2  0
  8  9  1  0
  8 10  1  0
 10 11  1  0
 10 12  2  0
 10 13  2  0
  9  5  1  0
M  END
>  <target>  (413) 
-2.36

$$$$

     RDKit          3D

 10 10  0  0  0  0  0  0  0  0999 V2000
   -2.9997   -0.1710    0.0315 O   0  0  0  0  0  0  0  0  0  0  0  0
   -1.6393   -0.0946    0.0174 C   0  0  0  0  0  0  0  0  0  0  0  0
   -0.8480   -1.2296    0.1785 C   0  0  0  0  0  0  0  0  0  0  0  0
    0.5438   -1.1061    0.1576 C   0  0  0  0  0  0  0  0  0  0  0  0
    1.1249    0.1580   -0.0253 C   0  0  0  0  0  0  0  0  0  0  0  0
    0.3224    1.2957   -0.1868 C   0  0  0  0  0  0  0  0  0  0  0  0
   -1.0670    1.1616   -0.1644 C   0  0  0  0  0  0  0  0  0  0  0  0
    2.5872    0.2897   -0.0476 N   0  0  0  0  0  0  0  0  0  0  0  0
    3.0627    1.4223   -0.2113 O   0  0  0  0  0  0  0  0  0  0  0  0
    3.2604   -0.7407    0.0988 O   0  0  0  0  0  0  0  0  0  0  0  0
  1  2  1  0
  2  3  2  0
  3  4  1  0
  4  5  2  0
  5  6  1  0
  6  7  2  0
  5  8  1  0
  8  9  1  0
  8 10  2  0
  7  2  1  0
M  CHG  2   8   1   9  -1
M  END
>  <target>  (414) 
-0.74

$$$$

     RDKit          3D

 18 21  0  0  0  0  0  0  0  0999 V2000
   -1.7343   -1.5379    2.6304 Cl  0  0  0  0  0  0  0  0  0  0  0  0
   -1.4867   -0.4820    1.3271 C   0  0  0  0  0  0  0  0  0  0  0  0
   -1.2723    0.8404    1.3721 C   0  0  0  0  0  0  0  0  0  0  0  0
   -1.1878    1.8318    2.7449 Cl  0  0  0  0  0  0  0  0  0  0  0  0
   -1.1500    1.3352   -0.0530 C   0  0  0  0  0  0  0  0  0  0  0  0
   -1.3951    3.0545   -0.3080 Cl  0  0  0  0  0  0  0  0  0  0  0  0
    0.1529    0.8029   -0.7283 C   0  0  0  0  0  0  0  0  0  0  0  0
    1.5784    0.8963   -0.1310 C   0  0  0  0  0  0  0  0  0  0  0  0
    2.2175   -0.3302   -0.8238 C   0  0  0  0  0  0  0  0  0  0  0  0
    1.2165   -1.3353   -0.2068 C   0  0  0  0  0  0  0  0  0  0  0  0
    1.4522   -0.9561    1.2298 C   0  0  0  0  0  0  0  0  0  0  0  0
    1.6669    0.3680    1.2748 C   0  0  0  0  0  0  0  0  0  0  0  0
   -0.1001   -0.7574   -0.7813 C   0  0  0  0  0  0  0  0  0  0  0  0
   -1.5116   -0.8946   -0.1288 C   0  0  0  0  0  0  0  0  0  0  0  0
   -2.2842   -2.4278   -0.4944 Cl  0  0  0  0  0  0  0  0  0  0  0  0
   -2.2306    0.3869   -0.6991 C   0  0  0  0  0  0  0  0  0  0  0  0
   -2.3396    0.4657   -2.4989 Cl  0  0  0  0  0  0  0  0  0  0  0  0
   -3.9250    0.6416   -0.1088 Cl  0  0  0  0  0  0  0  0  0  0  0  0
  1  2  1  0
  2  3  2  0
  3  4  1  0
  3  5  1  0
  5  6  1  0
  5  7  1  0
  7  8  1  0
  8  9  1  0
  9 10  1  0
 10 11  1  0
 11 12  2  0
 10 13  1  0
 13 14  1  0
 14 15  1  0
 14 16  1  0
 16 17  1  0
 16 18  1  0
 14  2  1  0
 16  5  1  0
 13  7  1  0
 12  8  1  0
M  END
>  <target>  (415) 
-6.307

$$$$

     RDKit          3D

  5  5  0  0  0  0  0  0  0  0999 V2000
   -0.7020    0.7244    0.3264 C   0  0  0  0  0  0  0  0  0  0  0  0
    0.7492    0.7459   -0.0800 C   0  0  0  0  0  0  0  0  0  0  0  0
    1.1306   -0.7128    0.0494 C   0  0  0  0  0  0  0  0  0  0  0  0
   -0.0474   -1.4760   -0.2473 O   0  0  0  0  0  0  0  0  0  0  0  0
   -1.1723   -0.5858   -0.2670 C   0  0  0  0  0  0  0  0  0  0  0  0
  1  2  1  0
  2  3  1  0
  3  4  1  0
  4  5  1  0
  5  1  1  0
M  END
>  <target>  (416) 
0.49

$$$$

     RDKit          3D

 10 10  0  0  0  0  0  0  0  0999 V2000
    2.0317    0.0830    0.9260 N   0  0  0  0  0  0  0  0  0  0  0  0
    0.7682   -0.1920    0.3726 C   0  0  0  0  0  0  0  0  0  0  0  0
    0.1396   -1.3916    0.7395 C   0  0  0  0  0  0  0  0  0  0  0  0
   -1.1710   -1.6799    0.3428 C   0  0  0  0  0  0  0  0  0  0  0  0
   -1.9002   -0.7541   -0.3983 C   0  0  0  0  0  0  0  0  0  0  0  0
   -1.3240    0.4691   -0.7328 C   0  0  0  0  0  0  0  0  0  0  0  0
   -0.0053    0.7514   -0.3329 C   0  0  0  0  0  0  0  0  0  0  0  0
    0.5517    2.0541   -0.7006 N   0  0  0  0  0  0  0  0  0  0  0  0
   -0.2380    3.0031   -0.8195 O   0  0  0  0  0  0  0  0  0  0  0  0
    1.7758    2.1294   -0.8962 O   0  0  0  0  0  0  0  0  0  0  0  0
  1  2  1  0
  2  3  2  0
  3  4  1  0
  4  5  2  0
  5  6  1  0
  6  7  2  0
  7  8  1  0
  8  9  1  0
  8 10  2  0
  7  2  1  0
M  CHG  2   8   1   9  -1
M  END
>  <target>  (417) 
-1.96

$$$$

     RDKit          3D

 16 17  0  0  0  0  0  0  0  0999 V2000
    3.9636    2.4179   -0.1817 Cl  0  0  0  0  0  0  0  0  0  0  0  0
    2.9292    1.0327   -0.1053 C   0  0  0  0  0  0  0  0  0  0  0  0
    3.5453   -0.2214   -0.0647 C   0  0  0  0  0  0  0  0  0  0  0  0
    2.7737   -1.3787   -0.0076 C   0  0  0  0  0  0  0  0  0  0  0  0
    1.3824   -1.2851    0.0098 C   0  0  0  0  0  0  0  0  0  0  0  0
    0.7368   -0.0340   -0.0270 C   0  0  0  0  0  0  0  0  0  0  0  0
    1.5285    1.1348   -0.0877 C   0  0  0  0  0  0  0  0  0  0  0  0
    0.7594    2.6937   -0.1472 Cl  0  0  0  0  0  0  0  0  0  0  0  0
   -0.7380    0.0020   -0.0023 C   0  0  0  0  0  0  0  0  0  0  0  0
   -1.4352   -0.0455   -1.2251 C   0  0  0  0  0  0  0  0  0  0  0  0
   -2.8288   -0.0111   -1.2617 C   0  0  0  0  0  0  0  0  0  0  0  0
   -3.5514    0.0691   -0.0745 C   0  0  0  0  0  0  0  0  0  0  0  0
   -2.8837    0.1143    1.1528 C   0  0  0  0  0  0  0  0  0  0  0  0
   -3.8595    0.2069    2.5789 Cl  0  0  0  0  0  0  0  0  0  0  0  0
   -1.4803    0.0804    1.1975 C   0  0  0  0  0  0  0  0  0  0  0  0
   -0.6475    0.1275    2.7238 Cl  0  0  0  0  0  0  0  0  0  0  0  0
  1  2  1  0
  2  3  2  0
  3  4  1  0
  4  5  2  0
  5  6  1  0
  6  7  2  0
  7  8  1  0
  6  9  1  0
  9 10  2  0
 10 11  1  0
 11 12  2  0
 12 13  1  0
 13 14  1  0
 13 15  2  0
 15 16  1  0
  7  2  1  0
 15  9  1  0
M  END
>  <target>  (418) 
-7.28

$$$$

     RDKit          3D

 23 25  0  0  0  0  0  0  0  0999 V2000
    4.6432    1.1681    1.4694 C   0  0  0  0  0  0  0  0  0  0  0  0
    4.4421    0.2012    0.3134 C   0  0  0  0  0  0  0  0  0  0  0  0
    2.9575   -0.0149    0.0165 C   0  0  0  0  0  0  0  0  0  0  0  0
    2.7629   -0.9906   -1.1521 C   0  0  0  0  0  0  0  0  0  0  0  0
    1.2999   -1.2595   -1.5054 C   0  0  0  0  0  0  0  0  0  0  0  0
    0.5464   -0.0187   -1.8988 C   0  0  0  0  0  0  0  0  0  0  0  0
    0.9249    0.7558   -2.7664 O   0  0  0  0  0  0  0  0  0  0  0  0
   -0.5628    0.0728   -1.0411 N   0  0  0  0  0  0  0  0  0  0  0  0
   -0.6290   -1.0758   -0.2042 N   0  0  0  0  0  0  0  0  0  0  0  0
    0.5225   -1.8614   -0.3667 C   0  0  0  0  0  0  0  0  0  0  0  0
    0.8510   -2.8909    0.2057 O   0  0  0  0  0  0  0  0  0  0  0  0
   -1.8694   -1.6459    0.2271 C   0  0  0  0  0  0  0  0  0  0  0  0
   -3.0954   -1.1915   -0.2862 C   0  0  0  0  0  0  0  0  0  0  0  0
   -4.3076   -1.7445    0.1398 C   0  0  0  0  0  0  0  0  0  0  0  0
   -4.3154   -2.7630    1.0868 C   0  0  0  0  0  0  0  0  0  0  0  0
   -3.1120   -3.2281    1.6070 C   0  0  0  0  0  0  0  0  0  0  0  0
   -1.9003   -2.6741    1.1803 C   0  0  0  0  0  0  0  0  0  0  0  0
   -1.0636    1.3506   -0.6303 C   0  0  0  0  0  0  0  0  0  0  0  0
   -1.1380    2.4192   -1.5356 C   0  0  0  0  0  0  0  0  0  0  0  0
   -1.6308    3.6673   -1.1408 C   0  0  0  0  0  0  0  0  0  0  0  0
   -2.0583    3.8681    0.1677 C   0  0  0  0  0  0  0  0  0  0  0  0
   -1.9929    2.8215    1.0816 C   0  0  0  0  0  0  0  0  0  0  0  0
   -1.4998    1.5739    0.6859 C   0  0  0  0  0  0  0  0  0  0  0  0
  1  2  1  0
  2  3  1  0
  3  4  1  0
  4  5  1  0
  5  6  1  0
  6  7  2  0
  6  8  1  0
  8  9  1  0
  9 10  1  0
 10 11  2  0
  9 12  1  0
 12 13  2  0
 13 14  1  0
 14 15  2  0
 15 16  1  0
 16 17  2  0
  8 18  1  0
 18 19  2  0
 19 20  1  0
 20 21  2  0
 21 22  1  0
 22 23  2  0
 10  5  1  0
 17 12  1  0
 23 18  1  0
M  END
>  <target>  (419) 
-3.81

$$$$

     RDKit          3D

 13 13  0  0  0  0  0  0  0  0999 V2000
   -0.2151    2.0151    0.3179 C   0  0  0  0  0  0  0  0  0  0  0  0
   -0.0606    0.5368    0.0748 C   0  0  0  0  0  0  0  0  0  0  0  0
   -1.1008   -0.3779    0.3382 C   0  0  0  0  0  0  0  0  0  0  0  0
   -0.9788   -1.7546    0.0750 C   0  0  0  0  0  0  0  0  0  0  0  0
    0.2120   -2.2582   -0.4427 C   0  0  0  0  0  0  0  0  0  0  0  0
    1.2781   -1.3943   -0.6815 C   0  0  0  0  0  0  0  0  0  0  0  0
    1.1394   -0.0204   -0.4126 C   0  0  0  0  0  0  0  0  0  0  0  0
    2.3124    0.8129   -0.6520 N   0  0  0  0  0  0  0  0  0  0  0  0
    2.8276    0.7474   -1.7756 O   0  0  0  0  0  0  0  0  0  0  0  0
    2.7161    1.5075    0.2891 O   0  0  0  0  0  0  0  0  0  0  0  0
   -2.3645    0.0664    0.9155 N   0  0  0  0  0  0  0  0  0  0  0  0
   -2.3107    0.7052    1.9739 O   0  0  0  0  0  0  0  0  0  0  0  0
   -3.3984   -0.2463    0.3113 O   0  0  0  0  0  0  0  0  0  0  0  0
  1  2  1  0
  2  3  2  0
  3  4  1  0
  4  5  2  0
  5  6  1  0
  6  7  2  0
  7  8  1  0
  8  9  1  0
  8 10  2  0
  3 11  1  0
 11 12  1  0
 11 13  2  0
  7  2  1  0
M  CHG  4   8   1   9  -1  11   1  12  -1
M  END
>  <target>  (420) 
-3.0

$$$$

     RDKit          3D

 23 26  0  0  0  0  0  0  0  0999 V2000
    5.1169    1.2523   -0.3285 C   0  0  0  0  0  0  0  0  0  0  0  0
    4.5363   -0.1180   -0.5712 C   0  0  0  0  0  0  0  0  0  0  0  0
    5.1282   -0.9375   -1.2732 O   0  0  0  0  0  0  0  0  0  0  0  0
    3.1805   -0.4114    0.0686 C   0  0  0  0  0  0  0  0  0  0  0  0
    2.9742   -1.9073    0.3630 C   0  0  0  0  0  0  0  0  0  0  0  0
    1.7349   -2.3261   -0.4096 C   0  0  0  0  0  0  0  0  0  0  0  0
    0.8848   -1.0563   -0.5177 C   0  0  0  0  0  0  0  0  0  0  0  0
    0.0074   -0.7480    0.7223 C   0  0  0  0  0  0  0  0  0  0  0  0
   -0.9065   -1.9240    1.1092 C   0  0  0  0  0  0  0  0  0  0  0  0
   -2.0449   -1.4931    2.0230 C   0  0  0  0  0  0  0  0  0  0  0  0
   -2.9146   -0.4190    1.4173 C   0  0  0  0  0  0  0  0  0  0  0  0
   -4.1604   -0.2428    1.8945 C   0  0  0  0  0  0  0  0  0  0  0  0
   -5.0481    0.8334    1.3963 C   0  0  0  0  0  0  0  0  0  0  0  0
   -6.2088    0.8879    1.7971 O   0  0  0  0  0  0  0  0  0  0  0  0
   -4.5065    1.8088    0.3817 C   0  0  0  0  0  0  0  0  0  0  0  0
   -2.9817    1.8661    0.4072 C   0  0  0  0  0  0  0  0  0  0  0  0
   -2.3096    0.4648    0.3236 C   0  0  0  0  0  0  0  0  0  0  0  0
   -2.6237   -0.1455   -1.0634 C   0  0  0  0  0  0  0  0  0  0  0  0
   -0.7648    0.6065    0.5734 C   0  0  0  0  0  0  0  0  0  0  0  0
   -0.0593    1.5678   -0.4090 C   0  0  0  0  0  0  0  0  0  0  0  0
    1.4579    1.4449   -0.3066 C   0  0  0  0  0  0  0  0  0  0  0  0
    1.9488    0.0539   -0.7710 C   0  0  0  0  0  0  0  0  0  0  0  0
    2.2457    0.1120   -2.2890 C   0  0  0  0  0  0  0  0  0  0  0  0
  1  2  1  0
  2  3  2  0
  2  4  1  0
  4  5  1  0
  5  6  1  0
  6  7  1  0
  7  8  1  0
  8  9  1  0
  9 10  1  0
 10 11  1  0
 11 12  2  0
 12 13  1  0
 13 14  2  0
 13 15  1  0
 15 16  1  0
 16 17  1  0
 17 18  1  0
 17 19  1  0
 19 20  1  0
 20 21  1  0
 21 22  1  0
 22 23  1  0
 22  4  1  0
 22  7  1  0
 19  8  1  0
 17 11  1  0
M  END
>  <target>  (421) 
-4.42

$$$$

     RDKit          3D

 17 17  0  0  0  0  0  0  0  0999 V2000
    2.0040    2.3511   -0.9239 C   0  0  0  0  0  0  0  0  0  0  0  0
    1.9404    0.9261   -1.4534 C   0  0  0  0  0  0  0  0  0  0  0  0
    2.2491   -0.0317   -0.4022 N   0  0  0  0  0  0  0  0  0  0  0  0
    3.6167   -0.5027   -0.2384 C   0  0  0  0  0  0  0  0  0  0  0  0
    3.8388   -1.8000   -1.0020 C   0  0  0  0  0  0  0  0  0  0  0  0
    1.2504   -0.4919    0.4311 C   0  0  0  0  0  0  0  0  0  0  0  0
    1.5569   -1.3736    1.3658 N   0  0  0  0  0  0  0  0  0  0  0  0
    0.5291   -1.7492    2.1060 C   0  0  0  0  0  0  0  0  0  0  0  0
    0.8730   -2.8931    3.3307 Cl  0  0  0  0  0  0  0  0  0  0  0  0
   -0.7300   -1.3575    2.0230 N   0  0  0  0  0  0  0  0  0  0  0  0
   -0.9551   -0.4764    1.0649 C   0  0  0  0  0  0  0  0  0  0  0  0
    0.0113   -0.0313    0.2625 N   0  0  0  0  0  0  0  0  0  0  0  0
   -2.2377   -0.0002    0.8873 N   0  0  0  0  0  0  0  0  0  0  0  0
   -2.5218    0.9573   -0.1711 C   0  0  0  0  0  0  0  0  0  0  0  0
   -2.2761    2.3811    0.3059 C   0  0  0  0  0  0  0  0  0  0  0  0
   -3.3157   -0.4540    1.7538 C   0  0  0  0  0  0  0  0  0  0  0  0
   -3.9261   -1.7455    1.2295 C   0  0  0  0  0  0  0  0  0  0  0  0
  1  2  1  0
  2  3  1  0
  3  4  1  0
  4  5  1  0
  3  6  1  0
  6  7  2  0
  7  8  1  0
  8  9  1  0
  8 10  2  0
 10 11  1  0
 11 12  2  0
 11 13  1  0
 13 14  1  0
 14 15  1  0
 13 16  1  0
 16 17  1  0
 12  6  1  0
M  END
>  <target>  (422) 
-4.4110000000000005

$$$$

     RDKit          3D

 18 19  0  0  0  0  0  0  0  0999 V2000
    5.5343    0.4124   -1.2285 Cl  0  0  0  0  0  0  0  0  0  0  0  0
    4.1103    1.0177   -0.2970 C   0  0  0  0  0  0  0  0  0  0  0  0
    4.6241    2.5402    0.5177 Cl  0  0  0  0  0  0  0  0  0  0  0  0
    3.5122   -0.0425    0.6741 C   0  0  0  0  0  0  0  0  0  0  0  0
    4.7505   -0.5825    1.8962 Cl  0  0  0  0  0  0  0  0  0  0  0  0
    3.0245   -1.5453   -0.2242 Cl  0  0  0  0  0  0  0  0  0  0  0  0
    2.0742    0.6070    1.6682 S   0  0  0  0  0  0  0  0  0  0  0  0
    0.7203    0.1011    0.7920 N   0  0  0  0  0  0  0  0  0  0  0  0
    0.3609    0.6146   -0.4285 C   0  0  0  0  0  0  0  0  0  0  0  0
    1.0110    1.3729   -1.1334 O   0  0  0  0  0  0  0  0  0  0  0  0
   -1.0270    0.1196   -0.7468 C   0  0  0  0  0  0  0  0  0  0  0  0
   -2.0232    1.2178   -0.3529 C   0  0  0  0  0  0  0  0  0  0  0  0
   -3.2875    0.7263    0.2725 C   0  0  0  0  0  0  0  0  0  0  0  0
   -3.4923   -0.5400    0.6509 C   0  0  0  0  0  0  0  0  0  0  0  0
   -2.4810   -1.6314    0.5033 C   0  0  0  0  0  0  0  0  0  0  0  0
   -1.0932   -1.1593    0.0910 C   0  0  0  0  0  0  0  0  0  0  0  0
   -0.1599   -0.8578    1.2422 C   0  0  0  0  0  0  0  0  0  0  0  0
   -0.1580   -1.4356    2.3179 O   0  0  0  0  0  0  0  0  0  0  0  0
  1  2  1  0
  2  3  1  0
  2  4  1  0
  4  5  1  0
  4  6  1  0
  4  7  1  0
  7  8  1  0
  8  9  1  0
  9 10  2  0
  9 11  1  0
 11 12  1  0
 12 13  1  0
 13 14  2  0
 14 15  1  0
 15 16  1  0
 16 17  1  0
 17 18  2  0
 16 11  1  0
 17  8  1  0
M  END
>  <target>  (423) 
-5.4

$$$$

     RDKit          3D

  9  9  0  0  0  0  0  0  0  0999 V2000
    1.2072    0.6570   -0.0201 C   0  0  0  0  0  0  0  0  0  0  0  0
    2.8606    1.5908   -0.0479 Br  0  0  0  0  0  0  0  0  0  0  0  0
    1.1177   -0.7406   -0.0056 C   0  0  0  0  0  0  0  0  0  0  0  0
    2.6412   -1.8755   -0.0120 Br  0  0  0  0  0  0  0  0  0  0  0  0
   -0.1374   -1.3593    0.0146 C   0  0  0  0  0  0  0  0  0  0  0  0
   -1.2940   -0.5809    0.0203 C   0  0  0  0  0  0  0  0  0  0  0  0
   -2.9880   -1.4191    0.0477 Br  0  0  0  0  0  0  0  0  0  0  0  0
   -1.2126    0.8095    0.0060 C   0  0  0  0  0  0  0  0  0  0  0  0
    0.0390    1.4282   -0.0142 C   0  0  0  0  0  0  0  0  0  0  0  0
  1  2  1  0
  1  3  2  0
  3  4  1  0
  3  5  1  0
  5  6  2  0
  6  7  1  0
  6  8  1  0
  8  9  2  0
  9  1  1  0
M  END
>  <target>  (424) 
-4.5

$$$$

     RDKit          3D

 20 22  0  0  0  0  0  0  0  0999 V2000
   -1.4623   -3.7101    1.0782 O   0  0  0  0  0  0  0  0  0  0  0  0
   -1.4137   -2.3343    0.7382 C   0  0  0  0  0  0  0  0  0  0  0  0
   -0.0849   -1.9205    0.3209 N   0  0  0  0  0  0  0  0  0  0  0  0
    0.1756   -0.6634    0.1956 C   0  0  0  0  0  0  0  0  0  0  0  0
    1.5637   -0.3079   -0.2424 C   0  0  0  0  0  0  0  0  0  0  0  0
    2.6421   -1.0465    0.2589 C   0  0  0  0  0  0  0  0  0  0  0  0
    3.9447   -0.7363   -0.1343 C   0  0  0  0  0  0  0  0  0  0  0  0
    4.1721    0.3032   -1.0358 C   0  0  0  0  0  0  0  0  0  0  0  0
    3.0988    1.0289   -1.5529 C   0  0  0  0  0  0  0  0  0  0  0  0
    1.7935    0.7225   -1.1630 C   0  0  0  0  0  0  0  0  0  0  0  0
   -0.7994    0.4458    0.4371 C   0  0  0  0  0  0  0  0  0  0  0  0
   -0.3425    1.5941    1.1054 C   0  0  0  0  0  0  0  0  0  0  0  0
   -1.1590    2.7182    1.1986 C   0  0  0  0  0  0  0  0  0  0  0  0
   -0.5859    4.1266    2.0011 Cl  0  0  0  0  0  0  0  0  0  0  0  0
   -2.4266    2.7171    0.6254 C   0  0  0  0  0  0  0  0  0  0  0  0
   -2.8964    1.5694   -0.0171 C   0  0  0  0  0  0  0  0  0  0  0  0
   -2.1068    0.4132   -0.0790 C   0  0  0  0  0  0  0  0  0  0  0  0
   -2.6925   -0.7106   -0.6785 N   0  0  0  0  0  0  0  0  0  0  0  0
   -2.4028   -2.0281   -0.4190 C   0  0  0  0  0  0  0  0  0  0  0  0
   -2.9806   -2.9060   -1.0646 O   0  0  0  0  0  0  0  0  0  0  0  0
  1  2  1  0
  2  3  1  0
  3  4  2  0
  4  5  1  0
  5  6  2  0
  6  7  1  0
  7  8  2  0
  8  9  1  0
  9 10  2  0
  4 11  1  0
 11 12  2  0
 12 13  1  0
 13 14  1  0
 13 15  2  0
 15 16  1  0
 16 17  2  0
 17 18  1  0
 18 19  1  0
 19 20  2  0
 10  5  1  0
 17 11  1  0
 19  2  1  0
M  END
>  <target>  (425) 
-3.952

$$$$

     RDKit          3D

 17 17  0  0  0  0  0  0  0  0999 V2000
    0.3744   -2.3502    1.0585 O   0  0  0  0  0  0  0  0  0  0  0  0
   -0.6592   -1.6907    0.9940 C   0  0  0  0  0  0  0  0  0  0  0  0
   -1.7866   -2.1485    1.6223 N   0  0  0  0  0  0  0  0  0  0  0  0
   -3.0531   -1.8195    1.2528 C   0  0  0  0  0  0  0  0  0  0  0  0
   -4.0039   -2.5513    1.5067 O   0  0  0  0  0  0  0  0  0  0  0  0
   -3.2034   -0.6913    0.5116 N   0  0  0  0  0  0  0  0  0  0  0  0
   -2.1954   -0.1785   -0.2573 C   0  0  0  0  0  0  0  0  0  0  0  0
   -2.4641    0.3762   -1.3203 O   0  0  0  0  0  0  0  0  0  0  0  0
   -0.7782   -0.3279    0.3100 C   0  0  0  0  0  0  0  0  0  0  0  0
    0.2815   -0.1450   -0.8440 C   0  0  0  0  0  0  0  0  0  0  0  0
    0.1997   -1.2855   -1.8796 C   0  0  0  0  0  0  0  0  0  0  0  0
    1.7419    0.0494   -0.3569 C   0  0  0  0  0  0  0  0  0  0  0  0
    2.7302    0.3580   -1.4888 C   0  0  0  0  0  0  0  0  0  0  0  0
    4.1119    0.6892   -0.9436 C   0  0  0  0  0  0  0  0  0  0  0  0
   -0.6446    0.7245    1.4555 C   0  0  0  0  0  0  0  0  0  0  0  0
   -0.7575    2.1651    1.0278 C   0  0  0  0  0  0  0  0  0  0  0  0
   -1.7340    2.9896    1.4278 C   0  0  0  0  0  0  0  0  0  0  0  0
  1  2  2  0
  2  3  1  0
  3  4  1  0
  4  5  2  0
  4  6  1  0
  6  7  1  0
  7  8  2  0
  7  9  1  0
  9 10  1  0
 10 11  1  0
 10 12  1  0
 12 13  1  0
 13 14  1  0
  9 15  1  0
 15 16  1  0
 16 17  2  0
  9  2  1  0
M  END
>  <target>  (426) 
-2.356

$$$$

     RDKit          3D

 11 11  0  0  0  0  0  0  0  0999 V2000
    1.5987    0.1665   -0.7712 C   0  0  0  0  0  0  0  0  0  0  0  0
    2.3760    0.6453   -1.7890 O   0  0  0  0  0  0  0  0  0  0  0  0
    2.2079   -0.5783    0.2411 C   0  0  0  0  0  0  0  0  0  0  0  0
    3.6832   -0.8510    0.2184 C   0  0  0  0  0  0  0  0  0  0  0  0
    1.4105   -1.0673    1.2817 C   0  0  0  0  0  0  0  0  0  0  0  0
    0.0356   -0.8144    1.3048 C   0  0  0  0  0  0  0  0  0  0  0  0
   -0.5748   -0.0664    0.2878 C   0  0  0  0  0  0  0  0  0  0  0  0
   -2.0700    0.1933    0.3377 C   0  0  0  0  0  0  0  0  0  0  0  0
   -2.7892   -0.4264   -0.8631 C   0  0  0  0  0  0  0  0  0  0  0  0
   -2.3781    1.6888    0.4459 C   0  0  0  0  0  0  0  0  0  0  0  0
    0.2261    0.4234   -0.7551 C   0  0  0  0  0  0  0  0  0  0  0  0
  1  2  1  0
  1  3  2  0
  3  4  1  0
  3  5  1  0
  5  6  2  0
  6  7  1  0
  7  8  1  0
  8  9  1  0
  8 10  1  0
  7 11  2  0
 11  1  1  0
M  END
>  <target>  (427) 
-2.08

$$$$

     RDKit          3D

  7  7  0  0  0  0  0  0  0  0999 V2000
   -1.1891   -0.6285   -0.0398 C   0  0  0  0  0  0  0  0  0  0  0  0
    0.1762   -1.6526    0.5778 S   0  0  0  0  0  0  0  0  0  0  0  0
    1.3493   -0.3767    0.4022 C   0  0  0  0  0  0  0  0  0  0  0  0
    2.9607   -0.4721    0.7665 S   0  0  0  0  0  0  0  0  0  0  0  0
    0.7584    0.7427   -0.0866 N   0  0  0  0  0  0  0  0  0  0  0  0
   -0.5802    0.7136   -0.3537 C   0  0  0  0  0  0  0  0  0  0  0  0
   -1.1989    1.6723   -0.7956 O   0  0  0  0  0  0  0  0  0  0  0  0
  1  2  1  0
  2  3  1  0
  3  4  2  0
  3  5  1  0
  5  6  1  0
  6  7  2  0
  6  1  1  0
M  END
>  <target>  (428) 
-1.77

$$$$

     RDKit          3D

 22 24  0  0  0  0  0  0  0  0999 V2000
    6.0632    0.2990   -0.1858 O   0  0  0  0  0  0  0  0  0  0  0  0
    4.7049    0.1907   -0.2200 C   0  0  0  0  0  0  0  0  0  0  0  0
    4.0487    0.6270   -1.3625 C   0  0  0  0  0  0  0  0  0  0  0  0
    2.6559    0.5345   -1.4402 C   0  0  0  0  0  0  0  0  0  0  0  0
    1.9044   -0.0018   -0.3797 C   0  0  0  0  0  0  0  0  0  0  0  0
    2.6021   -0.4195    0.7696 C   0  0  0  0  0  0  0  0  0  0  0  0
    1.9811   -0.9383    1.8766 O   0  0  0  0  0  0  0  0  0  0  0  0
    3.9927   -0.3334    0.8506 C   0  0  0  0  0  0  0  0  0  0  0  0
    0.4281   -0.0756   -0.4759 C   0  0  0  0  0  0  0  0  0  0  0  0
   -0.2090    0.4022    0.6633 O   0  0  0  0  0  0  0  0  0  0  0  0
   -1.5795    0.3945    0.7105 C   0  0  0  0  0  0  0  0  0  0  0  0
   -2.1755    0.8966    1.8664 C   0  0  0  0  0  0  0  0  0  0  0  0
   -3.5634    0.9061    1.9722 C   0  0  0  0  0  0  0  0  0  0  0  0
   -4.1051    1.4029    3.1202 O   0  0  0  0  0  0  0  0  0  0  0  0
   -4.3661    0.4237    0.9419 C   0  0  0  0  0  0  0  0  0  0  0  0
   -3.7644   -0.0760   -0.2107 C   0  0  0  0  0  0  0  0  0  0  0  0
   -4.6004   -0.5388   -1.1901 O   0  0  0  0  0  0  0  0  0  0  0  0
   -2.3711   -0.0905   -0.3264 C   0  0  0  0  0  0  0  0  0  0  0  0
   -1.7021   -0.6123   -1.5193 C   0  0  0  0  0  0  0  0  0  0  0  0
   -2.3328   -1.0661   -2.4712 O   0  0  0  0  0  0  0  0  0  0  0  0
   -0.2213   -0.5797   -1.5420 C   0  0  0  0  0  0  0  0  0  0  0  0
    0.4023   -1.0913   -2.6640 O   0  0  0  0  0  0  0  0  0  0  0  0
  1  2  1  0
  2  3  2  0
  3  4  1  0
  4  5  2  0
  5  6  1  0
  6  7  1  0
  6  8  2  0
  5  9  1  0
  9 10  1  0
 10 11  1  0
 11 12  2  0
 12 13  1  0
 13 14  1  0
 13 15  2  0
 15 16  1  0
 16 17  1  0
 16 18  2  0
 18 19  1  0
 19 20  2  0
 19 21  1  0
 21 22  1  0
  8  2  1  0
 18 11  1  0
 21  9  2  0
M  END
>  <target>  (429) 
-3.083

$$$$

     RDKit          3D

 21 25  0  0  0  0  0  0  0  0999 V2000
    1.3885    0.0171   -3.1321 Cl  0  0  0  0  0  0  0  0  0  0  0  0
    0.9543    0.1634   -1.4249 C   0  0  0  0  0  0  0  0  0  0  0  0
    2.0228    0.8666   -0.5247 C   0  0  0  0  0  0  0  0  0  0  0  0
    3.1128    1.3336   -0.8075 O   0  0  0  0  0  0  0  0  0  0  0  0
    1.2745    0.7914    0.8468 C   0  0  0  0  0  0  0  0  0  0  0  0
    2.1425    1.4956    2.2162 Cl  0  0  0  0  0  0  0  0  0  0  0  0
   -0.2325    1.2203    0.5505 C   0  0  0  0  0  0  0  0  0  0  0  0
   -0.7846    2.8195    1.0662 Cl  0  0  0  0  0  0  0  0  0  0  0  0
   -0.4524    0.7891   -1.0094 C   0  0  0  0  0  0  0  0  0  0  0  0
   -1.2308    1.9444   -2.0991 Cl  0  0  0  0  0  0  0  0  0  0  0  0
    0.4683   -1.1193   -0.6116 C   0  0  0  0  0  0  0  0  0  0  0  0
    1.0192   -2.7190   -1.1271 Cl  0  0  0  0  0  0  0  0  0  0  0  0
    0.6882   -0.6881    0.9483 C   0  0  0  0  0  0  0  0  0  0  0  0
    1.4654   -1.8439    2.0383 Cl  0  0  0  0  0  0  0  0  0  0  0  0
   -0.7059   -0.0654    1.3205 C   0  0  0  0  0  0  0  0  0  0  0  0
   -1.1211    0.0957    3.0543 Cl  0  0  0  0  0  0  0  0  0  0  0  0
   -1.7702   -0.7584    0.4592 C   0  0  0  0  0  0  0  0  0  0  0  0
   -3.2967    0.1416    0.4256 Cl  0  0  0  0  0  0  0  0  0  0  0  0
   -2.0540   -2.4339    0.9624 Cl  0  0  0  0  0  0  0  0  0  0  0  0
   -1.0152   -0.6720   -0.8740 C   0  0  0  0  0  0  0  0  0  0  0  0
   -1.8727   -1.3783   -2.2777 Cl  0  0  0  0  0  0  0  0  0  0  0  0
  1  2  1  0
  2  3  1  0
  3  4  2  0
  3  5  1  0
  5  6  1  0
  5  7  1  0
  7  8  1  0
  7  9  1  0
  9 10  1  0
  2 11  1  0
 11 12  1  0
 11 13  1  0
 13 14  1  0
 13 15  1  0
 15 16  1  0
 15 17  1  0
 17 18  1  0
 17 19  1  0
 17 20  1  0
 20 21  1  0
  9  2  1  0
 13  5  1  0
 15  7  1  0
 20  9  1  0
 20 11  1  0
M  END
>  <target>  (430) 
-5.2589999999999995

$$$$

     RDKit          3D

 16 15  0  0  0  0  0  0  0  0999 V2000
   -2.6453    2.1907    0.8061 C   0  0  0  0  0  0  0  0  0  0  0  0
   -2.9161    0.8258    1.4228 C   0  0  0  0  0  0  0  0  0  0  0  0
   -2.2367   -0.2684    0.7011 N   0  0  0  0  0  0  0  0  0  0  0  0
   -2.9386   -0.7306   -0.5116 C   0  0  0  0  0  0  0  0  0  0  0  0
   -4.0015   -1.7781   -0.2072 C   0  0  0  0  0  0  0  0  0  0  0  0
   -1.0706   -0.9173    1.1667 C   0  0  0  0  0  0  0  0  0  0  0  0
   -0.3999   -2.3116    0.4886 S   0  0  0  0  0  0  0  0  0  0  0  0
   -0.2768   -0.2415    2.6018 S   0  0  0  0  0  0  0  0  0  0  0  0
    0.9677    1.1889    1.7836 S   0  0  0  0  0  0  0  0  0  0  0  0
    2.4002    0.2447    1.3154 C   0  0  0  0  0  0  0  0  0  0  0  0
    3.4039   -0.3509    2.5374 S   0  0  0  0  0  0  0  0  0  0  0  0
    2.6427    0.1156   -0.0697 N   0  0  0  0  0  0  0  0  0  0  0  0
    1.7631    0.6673   -1.1161 C   0  0  0  0  0  0  0  0  0  0  0  0
    2.1733    2.0770   -1.5168 C   0  0  0  0  0  0  0  0  0  0  0  0
    3.8253   -0.5995   -0.5838 C   0  0  0  0  0  0  0  0  0  0  0  0
    3.5471   -2.0782   -0.8107 C   0  0  0  0  0  0  0  0  0  0  0  0
  1  2  1  0
  2  3  1  0
  3  4  1  0
  4  5  1  0
  3  6  1  0
  6  7  2  0
  6  8  1  0
  8  9  1  0
  9 10  1  0
 10 11  2  0
 10 12  1  0
 12 13  1  0
 13 14  1  0
 12 15  1  0
 15 16  1  0
M  END
>  <target>  (431) 
-4.86

$$$$

     RDKit          3D

  6  6  0  0  0  0  0  0  0  0999 V2000
   -1.3857   -0.4224   -0.2798 C   0  0  0  0  0  0  0  0  0  0  0  0
   -1.0926    0.8075    0.5752 C   0  0  0  0  0  0  0  0  0  0  0  0
    0.2489    1.4387    0.2122 C   0  0  0  0  0  0  0  0  0  0  0  0
    1.3857    0.4224    0.2798 C   0  0  0  0  0  0  0  0  0  0  0  0
    1.0926   -0.8075   -0.5752 C   0  0  0  0  0  0  0  0  0  0  0  0
   -0.2489   -1.4387   -0.2122 C   0  0  0  0  0  0  0  0  0  0  0  0
  1  2  1  0
  2  3  1  0
  3  4  1  0
  4  5  1  0
  5  6  1  0
  6  1  1  0
M  END
>  <target>  (432) 
-3.1

$$$$

     RDKit          3D

 20 21  0  0  0  0  0  0  0  0999 V2000
   -2.7581    0.6882    2.7617 Cl  0  0  0  0  0  0  0  0  0  0  0  0
   -2.0895    0.1577    1.2895 C   0  0  0  0  0  0  0  0  0  0  0  0
   -0.9808   -0.5798    1.1395 C   0  0  0  0  0  0  0  0  0  0  0  0
   -0.0178   -1.1938    2.4057 Cl  0  0  0  0  0  0  0  0  0  0  0  0
   -0.7020   -0.8535   -0.3426 C   0  0  0  0  0  0  0  0  0  0  0  0
   -0.9392   -2.6341   -0.6193 Cl  0  0  0  0  0  0  0  0  0  0  0  0
   -1.9296   -0.1663   -0.9524 C   0  0  0  0  0  0  0  0  0  0  0  0
   -2.6783    0.4079   -0.0002 C   0  0  0  0  0  0  0  0  0  0  0  0
   -4.1304    1.2645   -0.2331 Cl  0  0  0  0  0  0  0  0  0  0  0  0
   -2.3057   -0.2094   -2.6160 Cl  0  0  0  0  0  0  0  0  0  0  0  0
    0.7198   -0.3299   -0.8436 C   0  0  0  0  0  0  0  0  0  0  0  0
    0.9879   -0.5985   -2.6211 Cl  0  0  0  0  0  0  0  0  0  0  0  0
    0.9721    1.1556   -0.5624 C   0  0  0  0  0  0  0  0  0  0  0  0
    2.0673    1.3203    0.1922 C   0  0  0  0  0  0  0  0  0  0  0  0
    2.7056    2.8011    0.7360 Cl  0  0  0  0  0  0  0  0  0  0  0  0
    2.6716    0.0390    0.4482 C   0  0  0  0  0  0  0  0  0  0  0  0
    1.9460   -0.9229   -0.1395 C   0  0  0  0  0  0  0  0  0  0  0  0
    2.3477   -2.5805   -0.1807 Cl  0  0  0  0  0  0  0  0  0  0  0  0
    4.1140   -0.1742    1.3260 Cl  0  0  0  0  0  0  0  0  0  0  0  0
   -0.0005    2.4087   -1.1878 Cl  0  0  0  0  0  0  0  0  0  0  0  0
  1  2  1  0
  2  3  2  0
  3  4  1  0
  3  5  1  0
  5  6  1  0
  5  7  1  0
  7  8  2  0
  8  9  1  0
  7 10  1  0
  5 11  1  0
 11 12  1  0
 11 13  1  0
 13 14  2  0
 14 15  1  0
 14 16  1  0
 16 17  2  0
 17 18  1  0
 16 19  1  0
 13 20  1  0
  8  2  1  0
 17 11  1  0
M  END
>  <target>  (433) 
-7.278

$$$$

     RDKit          3D

 13 13  0  0  0  0  0  0  0  0999 V2000
   -3.3180    1.3143    0.4869 C   0  0  0  0  0  0  0  0  0  0  0  0
   -2.5072    0.4869   -0.3910 N   0  0  0  0  0  0  0  0  0  0  0  0
   -3.1566   -0.6981   -0.9352 C   0  0  0  0  0  0  0  0  0  0  0  0
   -1.1344    0.5102   -0.2867 C   0  0  0  0  0  0  0  0  0  0  0  0
   -0.3170   -0.3511   -0.7977 N   0  0  0  0  0  0  0  0  0  0  0  0
    1.0459   -0.1189   -0.5591 C   0  0  0  0  0  0  0  0  0  0  0  0
    1.7586    0.7189   -1.4265 C   0  0  0  0  0  0  0  0  0  0  0  0
    3.1176    0.9642   -1.2249 C   0  0  0  0  0  0  0  0  0  0  0  0
    3.7717    0.3615   -0.1547 C   0  0  0  0  0  0  0  0  0  0  0  0
    5.4463    0.6638    0.1022 Cl  0  0  0  0  0  0  0  0  0  0  0  0
    3.0813   -0.4890    0.7089 C   0  0  0  0  0  0  0  0  0  0  0  0
    1.7151   -0.7453    0.5082 C   0  0  0  0  0  0  0  0  0  0  0  0
    0.9801   -1.6706    1.4361 C   0  0  0  0  0  0  0  0  0  0  0  0
  1  2  1  0
  2  3  1  0
  2  4  1  0
  4  5  2  3
  5  6  1  0
  6  7  2  0
  7  8  1  0
  8  9  2  0
  9 10  1  0
  9 11  1  0
 11 12  2  0
 12 13  1  0
 12  6  1  0
M  END
>  <target>  (434) 
-2.86

$$$$

     RDKit          3D

 20 23  0  0  0  0  0  0  0  0999 V2000
   -3.6584    0.6755    1.5002 C   0  0  0  0  0  0  0  0  0  0  0  0
   -2.4069    0.5753    0.6177 C   0  0  0  0  0  0  0  0  0  0  0  0
   -1.5072    1.7846    0.8449 C   0  0  0  0  0  0  0  0  0  0  0  0
   -0.2469    1.7349   -0.0114 C   0  0  0  0  0  0  0  0  0  0  0  0
    0.5098    0.4303    0.1150 C   0  0  0  0  0  0  0  0  0  0  0  0
   -0.1662   -0.7322    0.5448 C   0  0  0  0  0  0  0  0  0  0  0  0
    0.5652   -1.9139    0.7317 C   0  0  0  0  0  0  0  0  0  0  0  0
    1.9245   -1.9713    0.4393 C   0  0  0  0  0  0  0  0  0  0  0  0
    2.5960   -0.8516   -0.0582 C   0  0  0  0  0  0  0  0  0  0  0  0
    3.9601   -0.9445   -0.3835 C   0  0  0  0  0  0  0  0  0  0  0  0
    4.6352    0.1571   -0.8936 C   0  0  0  0  0  0  0  0  0  0  0  0
    5.9547    0.0945   -1.2260 O   0  0  0  0  0  0  0  0  0  0  0  0
    3.9781    1.3581   -1.0864 C   0  0  0  0  0  0  0  0  0  0  0  0
    2.6241    1.4616   -0.7612 C   0  0  0  0  0  0  0  0  0  0  0  0
    1.8952    0.3683   -0.2343 C   0  0  0  0  0  0  0  0  0  0  0  0
   -1.6621   -0.7634    0.8282 C   0  0  0  0  0  0  0  0  0  0  0  0
   -2.3990   -1.7347   -0.1163 C   0  0  0  0  0  0  0  0  0  0  0  0
   -2.6749   -0.9316   -1.3809 C   0  0  0  0  0  0  0  0  0  0  0  0
   -2.8560    0.4581   -0.8333 C   0  0  0  0  0  0  0  0  0  0  0  0
   -3.3103    1.3877   -1.4901 O   0  0  0  0  0  0  0  0  0  0  0  0
  1  2  1  0
  2  3  1  0
  3  4  1  0
  4  5  1  0
  5  6  2  0
  6  7  1  0
  7  8  2  0
  8  9  1  0
  9 10  2  0
 10 11  1  0
 11 12  1  0
 11 13  2  0
 13 14  1  0
 14 15  2  0
  6 16  1  0
 16 17  1  0
 17 18  1  0
 18 19  1  0
 19 20  2  0
 15  5  1  0
 15  9  1  0
 16  2  1  0
 19  2  1  0
M  END
>  <target>  (435) 
-5.24

$$$$

     RDKit          3D

  9  8  0  0  0  0  0  0  0  0999 V2000
   -4.0141   -0.0100    1.2183 C   0  0  0  0  0  0  0  0  0  0  0  0
   -2.7021   -0.3783    0.5423 C   0  0  0  0  0  0  0  0  0  0  0  0
   -2.0490    0.8417   -0.1083 C   0  0  0  0  0  0  0  0  0  0  0  0
   -0.7823    0.5045   -0.9001 C   0  0  0  0  0  0  0  0  0  0  0  0
    0.3671   -0.0008   -0.0238 C   0  0  0  0  0  0  0  0  0  0  0  0
    1.6398   -0.2072   -0.8495 C   0  0  0  0  0  0  0  0  0  0  0  0
    2.7897   -0.8174   -0.0477 C   0  0  0  0  0  0  0  0  0  0  0  0
    3.3081    0.0855    1.0635 C   0  0  0  0  0  0  0  0  0  0  0  0
    4.4328   -0.5382    1.6704 O   0  0  0  0  0  0  0  0  0  0  0  0
  1  2  1  0
  2  3  1  0
  3  4  1  0
  4  5  1  0
  5  6  1  0
  6  7  1  0
  7  8  1  0
  8  9  1  0
M  END
>  <target>  (436) 
-2.39

$$$$

     RDKit          3D

  5  4  0  0  0  0  0  0  0  0999 V2000
   -1.8812    0.2426    0.5358 C   0  0  0  0  0  0  0  0  0  0  0  0
   -0.9215   -0.9207    0.7065 C   0  0  0  0  0  0  0  0  0  0  0  0
   -0.0914   -1.3961   -0.8459 S   0  0  0  0  0  0  0  0  0  0  0  0
    0.8682    0.1075   -1.2245 C   0  0  0  0  0  0  0  0  0  0  0  0
    1.9245    0.4178   -0.1797 C   0  0  0  0  0  0  0  0  0  0  0  0
  1  2  1  0
  2  3  1  0
  3  4  1  0
  4  5  1  0
M  END
>  <target>  (437) 
-1.34

$$$$

     RDKit          3D

  4  3  0  0  0  0  0  0  0  0999 V2000
    2.0444   -0.6981    0.1382 Cl  0  0  0  0  0  0  0  0  0  0  0  0
    0.6440    0.3985    0.0420 C   0  0  0  0  0  0  0  0  0  0  0  0
   -0.6440   -0.3985   -0.0420 C   0  0  0  0  0  0  0  0  0  0  0  0
   -2.0444    0.6981   -0.1382 Cl  0  0  0  0  0  0  0  0  0  0  0  0
  1  2  1  0
  2  3  1  0
  3  4  1  0
M  END
>  <target>  (438) 
-1.06

$$$$

     RDKit          3D

  6  5  0  0  0  0  0  0  0  0999 V2000
    2.0147    0.2428    0.4719 C   0  0  0  0  0  0  0  0  0  0  0  0
    0.7830   -0.6442    0.3246 C   0  0  0  0  0  0  0  0  0  0  0  0
   -0.3975   -0.0322   -0.4617 C   0  0  0  0  0  0  0  0  0  0  0  0
   -0.8779    1.2883    0.1485 C   0  0  0  0  0  0  0  0  0  0  0  0
   -1.5598   -1.0338   -0.4919 C   0  0  0  0  0  0  0  0  0  0  0  0
    0.0972    0.2800   -2.1651 Cl  0  0  0  0  0  0  0  0  0  0  0  0
  1  2  1  0
  2  3  1  0
  3  4  1  0
  3  5  1  0
  3  6  1  0
M  END
>  <target>  (439) 
-2.51

$$$$

     RDKit          3D

  4  3  0  0  0  0  0  0  0  0999 V2000
   -1.9451    0.9479    0.3179 Cl  0  0  0  0  0  0  0  0  0  0  0  0
   -0.7101   -0.2514   -0.1338 C   0  0  0  0  0  0  0  0  0  0  0  0
    0.6737    0.2915    0.1491 C   0  0  0  0  0  0  0  0  0  0  0  0
    2.0118   -1.0343   -0.3513 Br  0  0  0  0  0  0  0  0  0  0  0  0
  1  2  1  0
  2  3  1  0
  3  4  1  0
M  END
>  <target>  (440) 
-1.32

$$$$

     RDKit          3D

 10 10  0  0  0  0  0  0  0  0999 V2000
    2.7775    0.4717   -0.2421 N   0  0  0  0  0  0  0  0  0  0  0  0
    1.4157    0.2234   -0.0493 C   0  0  0  0  0  0  0  0  0  0  0  0
    0.8859   -1.0408   -0.3284 C   0  0  0  0  0  0  0  0  0  0  0  0
   -0.4915   -1.2730   -0.2593 C   0  0  0  0  0  0  0  0  0  0  0  0
   -1.3519   -0.2146    0.0524 C   0  0  0  0  0  0  0  0  0  0  0  0
   -0.8423    1.0689    0.2781 C   0  0  0  0  0  0  0  0  0  0  0  0
    0.5379    1.2825    0.2047 C   0  0  0  0  0  0  0  0  0  0  0  0
   -2.7992   -0.4478    0.1241 N   0  0  0  0  0  0  0  0  0  0  0  0
   -3.2096   -1.5979   -0.0889 O   0  0  0  0  0  0  0  0  0  0  0  0
   -3.5266    0.5181    0.3966 O   0  0  0  0  0  0  0  0  0  0  0  0
  1  2  1  0
  2  3  2  0
  3  4  1  0
  4  5  2  0
  5  6  1  0
  6  7  2  0
  5  8  1  0
  8  9  1  0
  8 10  2  0
  7  2  1  0
M  CHG  2   8   1   9  -1
M  END
>  <target>  (441) 
-2.37

$$$$

     RDKit          3D

 23 24  0  0  0  0  0  0  0  0999 V2000
   -1.0122   -2.5702    2.2265 O   0  0  0  0  0  0  0  0  0  0  0  0
   -1.8656   -2.6938    1.0759 C   0  0  0  0  0  0  0  0  0  0  0  0
   -2.2094   -1.3101    0.5140 C   0  0  0  0  0  0  0  0  0  0  0  0
   -0.9529   -0.7828    0.0593 O   0  0  0  0  0  0  0  0  0  0  0  0
   -1.0902    0.4391   -0.6553 C   0  0  0  0  0  0  0  0  0  0  0  0
    0.2129    1.0227   -0.8212 O   0  0  0  0  0  0  0  0  0  0  0  0
    0.7731    1.6212    0.3737 C   0  0  0  0  0  0  0  0  0  0  0  0
    0.7230    0.7111    1.6146 C   0  0  0  0  0  0  0  0  0  0  0  0
    1.1435    1.4332    2.7809 O   0  0  0  0  0  0  0  0  0  0  0  0
    1.5795   -0.5347    1.3176 C   0  0  0  0  0  0  0  0  0  0  0  0
    1.3678   -1.5466    2.3109 O   0  0  0  0  0  0  0  0  0  0  0  0
    3.0423   -0.0952    1.0966 C   0  0  0  0  0  0  0  0  0  0  0  0
    3.5974    0.5463    2.2412 O   0  0  0  0  0  0  0  0  0  0  0  0
    3.1102    0.7949   -0.0228 O   0  0  0  0  0  0  0  0  0  0  0  0
    2.2646    1.9715    0.1092 C   0  0  0  0  0  0  0  0  0  0  0  0
    2.4344    2.7796   -1.1824 C   0  0  0  0  0  0  0  0  0  0  0  0
    3.8021    3.1662   -1.3323 O   0  0  0  0  0  0  0  0  0  0  0  0
   -1.6767    0.1018   -2.0471 C   0  0  0  0  0  0  0  0  0  0  0  0
   -0.6421   -0.1245   -3.0275 O   0  0  0  0  0  0  0  0  0  0  0  0
   -2.5231   -1.1880   -1.9889 C   0  0  0  0  0  0  0  0  0  0  0  0
   -3.5057   -1.1611   -3.0364 O   0  0  0  0  0  0  0  0  0  0  0  0
   -3.2306   -1.3404   -0.6384 C   0  0  0  0  0  0  0  0  0  0  0  0
   -4.1193   -0.2157   -0.4992 O   0  0  0  0  0  0  0  0  0  0  0  0
  1  2  1  0
  2  3  1  0
  3  4  1  0
  4  5  1  0
  5  6  1  0
  6  7  1  0
  7  8  1  0
  8  9  1  0
  8 10  1  0
 10 11  1  0
 10 12  1  0
 12 13  1  0
 12 14  1  0
 14 15  1  0
 15 16  1  0
 16 17  1  0
  5 18  1  0
 18 19  1  0
 18 20  1  0
 20 21  1  0
 20 22  1  0
 22 23  1  0
 22  3  1  0
 15  7  1  0
M  END
>  <target>  (442) 
-0.244

$$$$

     RDKit          3D

 20 22  0  0  0  0  0  0  0  0999 V2000
    2.5082    2.3293    1.4902 C   0  0  0  0  0  0  0  0  0  0  0  0
    2.5720    1.3817    0.2925 C   0  0  0  0  0  0  0  0  0  0  0  0
    1.3582    0.5461    0.2054 N   0  0  0  0  0  0  0  0  0  0  0  0
    0.1910    1.2480   -0.1872 C   0  0  0  0  0  0  0  0  0  0  0  0
    0.3436    2.4860   -0.7399 N   0  0  0  0  0  0  0  0  0  0  0  0
   -0.7448    3.1863   -1.1086 C   0  0  0  0  0  0  0  0  0  0  0  0
   -2.0280    2.7239   -0.9471 C   0  0  0  0  0  0  0  0  0  0  0  0
   -2.1965    1.4705   -0.3703 C   0  0  0  0  0  0  0  0  0  0  0  0
   -1.0915    0.6910    0.0225 C   0  0  0  0  0  0  0  0  0  0  0  0
   -1.3160   -0.5712    0.6741 N   0  0  0  0  0  0  0  0  0  0  0  0
   -2.5421   -0.7473    1.4657 C   0  0  0  0  0  0  0  0  0  0  0  0
   -3.6027   -1.5630    0.7355 C   0  0  0  0  0  0  0  0  0  0  0  0
   -0.4488   -1.6726    0.6558 C   0  0  0  0  0  0  0  0  0  0  0  0
   -0.6696   -2.6896    1.3222 O   0  0  0  0  0  0  0  0  0  0  0  0
    0.7019   -1.7450   -0.2588 C   0  0  0  0  0  0  0  0  0  0  0  0
    0.9562   -2.9738   -0.8902 C   0  0  0  0  0  0  0  0  0  0  0  0
    2.0872   -3.1272   -1.6784 C   0  0  0  0  0  0  0  0  0  0  0  0
    2.9378   -2.0481   -1.7883 C   0  0  0  0  0  0  0  0  0  0  0  0
    2.7240   -0.8616   -1.1783 N   0  0  0  0  0  0  0  0  0  0  0  0
    1.6033   -0.6995   -0.4173 C   0  0  0  0  0  0  0  0  0  0  0  0
  1  2  1  0
  2  3  1  0
  3  4  1  0
  4  5  2  0
  5  6  1  0
  6  7  2  0
  7  8  1  0
  8  9  2  0
  9 10  1  0
 10 11  1  0
 11 12  1  0
 10 13  1  0
 13 14  2  0
 13 15  1  0
 15 16  2  0
 16 17  1  0
 17 18  2  0
 18 19  1  0
 19 20  2  0
  9  4  1  0
 20  3  1  0
 20 15  1  0
M  END
>  <target>  (443) 
-2.86

$$$$

     RDKit          3D

  7  7  0  0  0  0  0  0  0  0999 V2000
    2.8894   -1.0047    0.0663 Cl  0  0  0  0  0  0  0  0  0  0  0  0
    1.2643   -0.4396    0.0290 C   0  0  0  0  0  0  0  0  0  0  0  0
    1.0085    0.9304   -0.0081 C   0  0  0  0  0  0  0  0  0  0  0  0
   -0.3099    1.3878   -0.0383 C   0  0  0  0  0  0  0  0  0  0  0  0
   -1.3653    0.4748   -0.0313 C   0  0  0  0  0  0  0  0  0  0  0  0
   -1.1050   -0.8958    0.0059 C   0  0  0  0  0  0  0  0  0  0  0  0
    0.2127   -1.3551    0.0361 C   0  0  0  0  0  0  0  0  0  0  0  0
  1  2  1  0
  2  3  2  0
  3  4  1  0
  4  5  2  0
  5  6  1  0
  6  7  2  0
  7  2  1  0
M  END
>  <target>  (444) 
-2.38

$$$$

     RDKit          3D

  9  8  0  0  0  0  0  0  0  0999 V2000
   -3.8568    1.2531    0.3877 C   0  0  0  0  0  0  0  0  0  0  0  0
   -3.5890   -0.2434    0.3449 C   0  0  0  0  0  0  0  0  0  0  0  0
   -2.2837   -0.6107   -0.3641 C   0  0  0  0  0  0  0  0  0  0  0  0
   -1.0353   -0.1145    0.3686 C   0  0  0  0  0  0  0  0  0  0  0  0
    0.2416   -0.5983   -0.3227 C   0  0  0  0  0  0  0  0  0  0  0  0
    1.4919   -0.1008    0.4057 C   0  0  0  0  0  0  0  0  0  0  0  0
    2.7673   -0.5862   -0.2861 C   0  0  0  0  0  0  0  0  0  0  0  0
    3.9947   -0.1089    0.4356 C   0  0  0  0  0  0  0  0  0  0  0  0
    4.9184    0.6954   -0.1053 C   0  0  0  0  0  0  0  0  0  0  0  0
  1  2  1  0
  2  3  1  0
  3  4  1  0
  4  5  1  0
  5  6  1  0
  6  7  1  0
  7  8  1  0
  8  9  2  0
M  END
>  <target>  (445) 
-5.05

$$$$

     RDKit          3D

  8  8  0  0  0  0  0  0  0  0999 V2000
   -3.2893    0.1993   -0.0115 Br  0  0  0  0  0  0  0  0  0  0  0  0
   -1.4025    0.0850   -0.0049 C   0  0  0  0  0  0  0  0  0  0  0  0
   -0.7855   -1.1652    0.0298 C   0  0  0  0  0  0  0  0  0  0  0  0
    0.6089   -1.2503    0.0348 C   0  0  0  0  0  0  0  0  0  0  0  0
    1.3741   -0.0832    0.0048 C   0  0  0  0  0  0  0  0  0  0  0  0
    3.4487   -0.2089    0.0121 I   0  0  0  0  0  0  0  0  0  0  0  0
    0.7556    1.1676   -0.0300 C   0  0  0  0  0  0  0  0  0  0  0  0
   -0.6389    1.2515   -0.0348 C   0  0  0  0  0  0  0  0  0  0  0  0
  1  2  1  0
  2  3  2  0
  3  4  1  0
  4  5  2  0
  5  6  1  0
  5  7  1  0
  7  8  2  0
  8  2  1  0
M  END
>  <target>  (446) 
-4.56

$$$$

     RDKit          3D

  7  6  0  0  0  0  0  0  0  0999 V2000
   -1.3428   -1.6231   -0.7266 C   0  0  0  0  0  0  0  0  0  0  0  0
   -0.7716   -0.9021    0.4892 C   0  0  0  0  0  0  0  0  0  0  0  0
   -0.3305    0.5525    0.2203 C   0  0  0  0  0  0  0  0  0  0  0  0
    0.1674    1.1898    1.5242 C   0  0  0  0  0  0  0  0  0  0  0  0
   -1.4772    1.3039   -0.2040 O   0  0  0  0  0  0  0  0  0  0  0  0
    0.7170    0.6960   -0.9026 C   0  0  0  0  0  0  0  0  0  0  0  0
    2.0148   -0.0697   -0.6908 C   0  0  0  0  0  0  0  0  0  0  0  0
  1  2  1  0
  2  3  1  0
  3  4  1  0
  3  5  1  0
  3  6  1  0
  6  7  1  0
M  END
>  <target>  (447) 
-0.36

$$$$

     RDKit          3D

 11 11  0  0  0  0  0  0  0  0999 V2000
    4.5222    0.3951   -0.5677 C   0  0  0  0  0  0  0  0  0  0  0  0
    3.0704    0.8462   -0.5732 C   0  0  0  0  0  0  0  0  0  0  0  0
    2.1278   -0.2954   -0.1931 C   0  0  0  0  0  0  0  0  0  0  0  0
    0.6683    0.1623   -0.1998 C   0  0  0  0  0  0  0  0  0  0  0  0
   -0.2736   -0.9820    0.1809 C   0  0  0  0  0  0  0  0  0  0  0  0
   -1.7159   -0.5411    0.1774 C   0  0  0  0  0  0  0  0  0  0  0  0
   -2.2993   -0.0091    1.3350 C   0  0  0  0  0  0  0  0  0  0  0  0
   -3.6294    0.4140    1.3263 C   0  0  0  0  0  0  0  0  0  0  0  0
   -4.3864    0.3138    0.1605 C   0  0  0  0  0  0  0  0  0  0  0  0
   -3.8137   -0.2077   -0.9981 C   0  0  0  0  0  0  0  0  0  0  0  0
   -2.4838   -0.6313   -0.9912 C   0  0  0  0  0  0  0  0  0  0  0  0
  1  2  1  0
  2  3  1  0
  3  4  1  0
  4  5  1  0
  5  6  1  0
  6  7  2  0
  7  8  1  0
  8  9  2  0
  9 10  1  0
 10 11  2  0
 11  6  1  0
M  END
>  <target>  (448) 
-4.64

$$$$

     RDKit          3D

 11 11  0  0  0  0  0  0  0  0999 V2000
    2.9948   -0.2691    0.8303 N   0  0  0  0  0  0  0  0  0  0  0  0
    2.0521   -0.3347   -0.1422 C   0  0  0  0  0  0  0  0  0  0  0  0
    2.2593   -0.8876   -1.2099 O   0  0  0  0  0  0  0  0  0  0  0  0
    0.8989    0.2938    0.2139 N   0  0  0  0  0  0  0  0  0  0  0  0
   -0.2456    0.1377   -0.6298 C   0  0  0  0  0  0  0  0  0  0  0  0
   -1.1592    1.2212   -0.4470 N   0  0  0  0  0  0  0  0  0  0  0  0
   -2.4387    0.7826   -0.2149 C   0  0  0  0  0  0  0  0  0  0  0  0
   -3.4182    1.5012   -0.1369 O   0  0  0  0  0  0  0  0  0  0  0  0
   -2.4244   -0.5628   -0.0818 N   0  0  0  0  0  0  0  0  0  0  0  0
   -1.1599   -1.0471   -0.2344 C   0  0  0  0  0  0  0  0  0  0  0  0
   -0.8366   -2.2113   -0.0574 O   0  0  0  0  0  0  0  0  0  0  0  0
  1  2  1  0
  2  3  2  0
  2  4  1  0
  4  5  1  0
  5  6  1  0
  6  7  1  0
  7  8  2  0
  7  9  1  0
  9 10  1  0
 10 11  2  0
 10  5  1  0
M  END
>  <target>  (449) 
-1.6

$$$$

     RDKit          3D

 26 28  0  0  0  0  0  0  0  0999 V2000
    5.3884    2.6750    1.8320 O   0  0  0  0  0  0  0  0  0  0  0  0
    5.8105    2.0865    0.6035 C   0  0  0  0  0  0  0  0  0  0  0  0
    5.0122    0.8131    0.3276 C   0  0  0  0  0  0  0  0  0  0  0  0
    5.1982   -0.0780    1.4417 O   0  0  0  0  0  0  0  0  0  0  0  0
    3.5177    1.0969    0.1523 C   0  0  0  0  0  0  0  0  0  0  0  0
    2.8776   -0.1505   -0.1891 O   0  0  0  0  0  0  0  0  0  0  0  0
    1.5490   -0.0423   -0.4458 C   0  0  0  0  0  0  0  0  0  0  0  0
    0.9035    0.9951   -0.4048 O   0  0  0  0  0  0  0  0  0  0  0  0
    0.9529   -1.3712   -0.7711 C   0  0  0  0  0  0  0  0  0  0  0  0
    1.7860   -2.4715   -1.0480 C   0  0  0  0  0  0  0  0  0  0  0  0
    1.2383   -3.7142   -1.3652 C   0  0  0  0  0  0  0  0  0  0  0  0
   -0.1418   -3.8685   -1.4193 C   0  0  0  0  0  0  0  0  0  0  0  0
   -0.9767   -2.7825   -1.1491 C   0  0  0  0  0  0  0  0  0  0  0  0
   -0.4540   -1.5222   -0.8096 C   0  0  0  0  0  0  0  0  0  0  0  0
   -1.3289   -0.4412   -0.5431 N   0  0  0  0  0  0  0  0  0  0  0  0
   -2.5724   -0.4062    0.1401 C   0  0  0  0  0  0  0  0  0  0  0  0
   -2.9448   -1.4195    1.0237 C   0  0  0  0  0  0  0  0  0  0  0  0
   -4.1650   -1.3289    1.6622 C   0  0  0  0  0  0  0  0  0  0  0  0
   -5.0337   -0.3154    1.4830 N   0  0  0  0  0  0  0  0  0  0  0  0
   -4.6929    0.6654    0.6341 C   0  0  0  0  0  0  0  0  0  0  0  0
   -5.5907    1.7060    0.4501 C   0  0  0  0  0  0  0  0  0  0  0  0
   -5.3128    2.7565   -0.4207 C   0  0  0  0  0  0  0  0  0  0  0  0
   -6.4550    4.0276   -0.6218 Cl  0  0  0  0  0  0  0  0  0  0  0  0
   -4.1218    2.7829   -1.1314 C   0  0  0  0  0  0  0  0  0  0  0  0
   -3.2047    1.7472   -0.9610 C   0  0  0  0  0  0  0  0  0  0  0  0
   -3.4682    0.6756   -0.0739 C   0  0  0  0  0  0  0  0  0  0  0  0
  1  2  1  0
  2  3  1  0
  3  4  1  0
  3  5  1  0
  5  6  1  0
  6  7  1  0
  7  8  2  0
  7  9  1  0
  9 10  2  0
 10 11  1  0
 11 12  2  0
 12 13  1  0
 13 14  2  0
 14 15  1  0
 15 16  1  0
 16 17  2  0
 17 18  1  0
 18 19  2  0
 19 20  1  0
 20 21  2  0
 21 22  1  0
 22 23  1  0
 22 24  2  0
 24 25  1  0
 25 26  2  0
 14  9  1  0
 26 16  1  0
 26 20  1  0
M  END
>  <target>  (450) 
-4.571000000000001

$$$$

     RDKit          3D

 18 19  0  0  0  0  0  0  0  0999 V2000
    1.5809   -3.3196    0.9208 Cl  0  0  0  0  0  0  0  0  0  0  0  0
    0.0589   -2.3634    0.9269 C   0  0  0  0  0  0  0  0  0  0  0  0
   -1.2898   -3.5157    0.6447 Cl  0  0  0  0  0  0  0  0  0  0  0  0
    0.0848   -1.2325   -0.1397 C   0  0  0  0  0  0  0  0  0  0  0  0
   -1.2178   -0.4321   -0.2704 C   0  0  0  0  0  0  0  0  0  0  0  0
   -1.9799   -0.0384    0.8426 C   0  0  0  0  0  0  0  0  0  0  0  0
   -3.1494    0.7100    0.6773 C   0  0  0  0  0  0  0  0  0  0  0  0
   -3.5646    1.0793   -0.5990 C   0  0  0  0  0  0  0  0  0  0  0  0
   -5.0012    2.0040   -0.7973 Cl  0  0  0  0  0  0  0  0  0  0  0  0
   -2.8198    0.7087   -1.7139 C   0  0  0  0  0  0  0  0  0  0  0  0
   -1.6515   -0.0395   -1.5503 C   0  0  0  0  0  0  0  0  0  0  0  0
    1.2693   -0.2734    0.0299 C   0  0  0  0  0  0  0  0  0  0  0  0
    1.4938    0.4247    1.2288 C   0  0  0  0  0  0  0  0  0  0  0  0
    2.5764    1.3003    1.3505 C   0  0  0  0  0  0  0  0  0  0  0  0
    3.4415    1.4889    0.2762 C   0  0  0  0  0  0  0  0  0  0  0  0
    4.7708    2.5697    0.4282 Cl  0  0  0  0  0  0  0  0  0  0  0  0
    3.2338    0.8103   -0.9209 C   0  0  0  0  0  0  0  0  0  0  0  0
    2.1519   -0.0648   -1.0447 C   0  0  0  0  0  0  0  0  0  0  0  0
  1  2  1  0
  2  3  1  0
  2  4  1  0
  4  5  1  0
  5  6  2  0
  6  7  1  0
  7  8  2  0
  8  9  1  0
  8 10  1  0
 10 11  2  0
  4 12  1  0
 12 13  2  0
 13 14  1  0
 14 15  2  0
 15 16  1  0
 15 17  1  0
 17 18  2  0
 11  5  1  0
 18 12  1  0
M  END
>  <target>  (451) 
-7.2

$$$$

     RDKit          3D

 24 27  0  0  0  0  0  0  0  0999 V2000
    6.1383   -1.3266    1.7379 C   0  0  0  0  0  0  0  0  0  0  0  0
    5.0769   -1.5075    0.6964 C   0  0  0  0  0  0  0  0  0  0  0  0
    5.1186   -2.3449   -0.1932 O   0  0  0  0  0  0  0  0  0  0  0  0
    4.0765   -0.6070    0.8955 O   0  0  0  0  0  0  0  0  0  0  0  0
    2.9960   -0.6683   -0.0365 C   0  0  0  0  0  0  0  0  0  0  0  0
    3.3238    0.0305   -1.3496 C   0  0  0  0  0  0  0  0  0  0  0  0
    1.9563    0.2429   -1.9812 C   0  0  0  0  0  0  0  0  0  0  0  0
    0.9497    0.4067   -0.8154 C   0  0  0  0  0  0  0  0  0  0  0  0
   -0.3001   -0.4914   -0.9902 C   0  0  0  0  0  0  0  0  0  0  0  0
   -1.0590   -0.1581   -2.2908 C   0  0  0  0  0  0  0  0  0  0  0  0
   -2.4783   -0.7070   -2.2881 C   0  0  0  0  0  0  0  0  0  0  0  0
   -3.3033   -0.1962   -1.1319 C   0  0  0  0  0  0  0  0  0  0  0  0
   -4.6450   -0.2249   -1.2243 C   0  0  0  0  0  0  0  0  0  0  0  0
   -5.5176    0.1897   -0.1017 C   0  0  0  0  0  0  0  0  0  0  0  0
   -6.7330    0.2435   -0.2762 O   0  0  0  0  0  0  0  0  0  0  0  0
   -4.8828    0.5674    1.2129 C   0  0  0  0  0  0  0  0  0  0  0  0
   -3.4807   -0.0171    1.3544 C   0  0  0  0  0  0  0  0  0  0  0  0
   -2.5678    0.2692    0.1273 C   0  0  0  0  0  0  0  0  0  0  0  0
   -2.3189    1.7944    0.0451 C   0  0  0  0  0  0  0  0  0  0  0  0
   -1.2307   -0.5411    0.2648 C   0  0  0  0  0  0  0  0  0  0  0  0
   -0.4754   -0.2797    1.5838 C   0  0  0  0  0  0  0  0  0  0  0  0
    0.9773   -0.7310    1.5016 C   0  0  0  0  0  0  0  0  0  0  0  0
    1.7620    0.1111    0.4789 C   0  0  0  0  0  0  0  0  0  0  0  0
    2.1749    1.4492    1.1439 C   0  0  0  0  0  0  0  0  0  0  0  0
  1  2  1  0
  2  3  2  0
  2  4  1  0
  4  5  1  0
  5  6  1  0
  6  7  1  0
  7  8  1  0
  8  9  1  0
  9 10  1  0
 10 11  1  0
 11 12  1  0
 12 13  2  0
 13 14  1  0
 14 15  2  0
 14 16  1  0
 16 17  1  0
 17 18  1  0
 18 19  1  0
 18 20  1  0
 20 21  1  0
 21 22  1  0
 22 23  1  0
 23 24  1  0
 18 12  1  0
 20  9  1  0
 23  5  1  0
 23  8  1  0
M  END
>  <target>  (452) 
-5.184

$$$$

     RDKit          3D

 11 12  0  0  0  0  0  0  0  0999 V2000
   -1.1886    3.1659   -0.1601 Cl  0  0  0  0  0  0  0  0  0  0  0  0
   -1.1660    1.4368   -0.0336 C   0  0  0  0  0  0  0  0  0  0  0  0
   -2.4041    0.7981    0.0907 C   0  0  0  0  0  0  0  0  0  0  0  0
   -2.4661   -0.5866    0.1970 C   0  0  0  0  0  0  0  0  0  0  0  0
   -1.2904   -1.3348    0.1791 C   0  0  0  0  0  0  0  0  0  0  0  0
   -0.0371   -0.7127    0.0550 C   0  0  0  0  0  0  0  0  0  0  0  0
    1.1365   -1.4849    0.0390 C   0  0  0  0  0  0  0  0  0  0  0  0
    2.3895   -0.8858   -0.0833 C   0  0  0  0  0  0  0  0  0  0  0  0
    2.4868    0.4951   -0.1915 C   0  0  0  0  0  0  0  0  0  0  0  0
    1.3301    1.2776   -0.1773 C   0  0  0  0  0  0  0  0  0  0  0  0
    0.0440    0.6982   -0.0544 C   0  0  0  0  0  0  0  0  0  0  0  0
  1  2  1  0
  2  3  2  0
  3  4  1  0
  4  5  2  0
  5  6  1  0
  6  7  2  0
  7  8  1  0
  8  9  2  0
  9 10  1  0
 10 11  2  0
 11  2  1  0
 11  6  1  0
M  END
>  <target>  (453) 
-3.93

$$$$

     RDKit          3D

 19 21  0  0  0  0  0  0  0  0999 V2000
   -1.9914   -0.9245    2.4013 C   0  0  0  0  0  0  0  0  0  0  0  0
   -1.1036    0.1239    1.7388 C   0  0  0  0  0  0  0  0  0  0  0  0
   -1.1426   -0.0023    0.2597 N   0  0  0  0  0  0  0  0  0  0  0  0
   -0.3745   -1.1028   -0.2036 C   0  0  0  0  0  0  0  0  0  0  0  0
   -1.1126   -2.2177   -0.6574 C   0  0  0  0  0  0  0  0  0  0  0  0
   -0.4835   -3.3680   -1.1220 C   0  0  0  0  0  0  0  0  0  0  0  0
    0.9008   -3.4203   -1.1446 C   0  0  0  0  0  0  0  0  0  0  0  0
    1.6467   -2.3217   -0.7066 C   0  0  0  0  0  0  0  0  0  0  0  0
    1.0345   -1.1384   -0.2390 C   0  0  0  0  0  0  0  0  0  0  0  0
    1.8610   -0.0604    0.2265 N   0  0  0  0  0  0  0  0  0  0  0  0
    3.1963   -0.3972    0.7185 C   0  0  0  0  0  0  0  0  0  0  0  0
    1.5617    1.3114    0.1876 C   0  0  0  0  0  0  0  0  0  0  0  0
    2.3491    2.1544    0.6345 O   0  0  0  0  0  0  0  0  0  0  0  0
    0.3394    1.8572   -0.4478 C   0  0  0  0  0  0  0  0  0  0  0  0
    0.4580    3.1046   -1.0926 C   0  0  0  0  0  0  0  0  0  0  0  0
   -0.6543    3.7349   -1.6513 C   0  0  0  0  0  0  0  0  0  0  0  0
   -1.9025    3.1318   -1.5615 C   0  0  0  0  0  0  0  0  0  0  0  0
   -2.0304    1.9025   -0.9147 C   0  0  0  0  0  0  0  0  0  0  0  0
   -0.9157    1.2534   -0.3498 C   0  0  0  0  0  0  0  0  0  0  0  0
  1  2  1  0
  2  3  1  0
  3  4  1  0
  4  5  2  0
  5  6  1  0
  6  7  2  0
  7  8  1  0
  8  9  2  0
  9 10  1  0
 10 11  1  0
 10 12  1  0
 12 13  2  0
 12 14  1  0
 14 15  2  0
 15 16  1  0
 16 17  2  0
 17 18  1  0
 18 19  2  0
  9  4  1  0
 19  3  1  0
 19 14  1  0
M  END
>  <target>  (454) 
-4.749

$$$$

     RDKit          3D

  7  6  0  0  0  0  0  0  0  0999 V2000
    3.2574    0.3122    0.2785 C   0  0  0  0  0  0  0  0  0  0  0  0
    1.9846   -0.5025    0.1118 C   0  0  0  0  0  0  0  0  0  0  0  0
    0.7375    0.3663    0.2777 C   0  0  0  0  0  0  0  0  0  0  0  0
   -0.5419   -0.4602    0.1098 C   0  0  0  0  0  0  0  0  0  0  0  0
   -1.8044    0.3847    0.3092 C   0  0  0  0  0  0  0  0  0  0  0  0
   -3.0655   -0.4618    0.2021 C   0  0  0  0  0  0  0  0  0  0  0  0
   -1.8628    1.4177   -0.6707 O   0  0  0  0  0  0  0  0  0  0  0  0
  1  2  1  0
  2  3  1  0
  3  4  1  0
  4  5  1  0
  5  6  1  0
  5  7  1  0
M  END
>  <target>  (455) 
-0.89

$$$$

     RDKit          3D

  8  8  0  0  0  0  0  0  0  0999 V2000
    3.4586   -0.3347   -0.4130 C   0  0  0  0  0  0  0  0  0  0  0  0
    2.0509   -0.6569    0.0640 C   0  0  0  0  0  0  0  0  0  0  0  0
    1.0834    0.4891   -0.2372 C   0  0  0  0  0  0  0  0  0  0  0  0
   -0.3266    0.2211    0.2920 C   0  0  0  0  0  0  0  0  0  0  0  0
   -1.0373   -0.9571   -0.3733 C   0  0  0  0  0  0  0  0  0  0  0  0
   -2.5235   -0.7124   -0.1186 C   0  0  0  0  0  0  0  0  0  0  0  0
   -2.6597    0.7644    0.2498 C   0  0  0  0  0  0  0  0  0  0  0  0
   -1.2858    1.3764    0.0130 C   0  0  0  0  0  0  0  0  0  0  0  0
  1  2  1  0
  2  3  1  0
  3  4  1  0
  4  5  1  0
  5  6  1  0
  6  7  1  0
  7  8  1  0
  8  4  1  0
M  END
>  <target>  (456) 
-4.74

$$$$

     RDKit          3D

 18 19  0  0  0  0  0  0  0  0999 V2000
    5.7288    0.1192    0.0407 C   0  0  0  0  0  0  0  0  0  0  0  0
    4.4131    0.2480   -0.7016 C   0  0  0  0  0  0  0  0  0  0  0  0
    3.3679   -0.2213    0.1577 O   0  0  0  0  0  0  0  0  0  0  0  0
    2.1205   -0.1616   -0.3874 C   0  0  0  0  0  0  0  0  0  0  0  0
    1.8777    0.2513   -1.5135 O   0  0  0  0  0  0  0  0  0  0  0  0
    1.1504   -0.6601    0.5530 C   0  0  0  0  0  0  0  0  0  0  0  0
    1.3566   -1.2175    1.8035 C   0  0  0  0  0  0  0  0  0  0  0  0
    0.1849   -1.6192    2.3813 N   0  0  0  0  0  0  0  0  0  0  0  0
   -0.7465   -1.3087    1.5118 C   0  0  0  0  0  0  0  0  0  0  0  0
   -0.2253   -0.7047    0.3962 N   0  0  0  0  0  0  0  0  0  0  0  0
   -1.0020   -0.2492   -0.7665 C   0  0  0  0  0  0  0  0  0  0  0  0
   -1.1477   -1.3886   -1.7807 C   0  0  0  0  0  0  0  0  0  0  0  0
   -2.3063    0.4219   -0.3420 C   0  0  0  0  0  0  0  0  0  0  0  0
   -3.5616   -0.1938   -0.4719 C   0  0  0  0  0  0  0  0  0  0  0  0
   -4.7244    0.4603   -0.0561 C   0  0  0  0  0  0  0  0  0  0  0  0
   -4.6520    1.7362    0.4968 C   0  0  0  0  0  0  0  0  0  0  0  0
   -3.4168    2.3617    0.6366 C   0  0  0  0  0  0  0  0  0  0  0  0
   -2.2537    1.7109    0.2216 C   0  0  0  0  0  0  0  0  0  0  0  0
  1  2  1  0
  2  3  1  0
  3  4  1  0
  4  5  2  0
  4  6  1  0
  6  7  2  0
  7  8  1  0
  8  9  2  0
  9 10  1  0
 10 11  1  0
 11 12  1  0
 11 13  1  0
 13 14  2  0
 14 15  1  0
 15 16  2  0
 16 17  1  0
 17 18  2  0
 10  6  1  0
 18 13  1  0
M  END
>  <target>  (457) 
-4.735

$$$$

     RDKit          3D

  9  9  0  0  0  0  0  0  0  0999 V2000
   -2.4734   -0.6525   -0.0031 O   0  0  0  0  0  0  0  0  0  0  0  0
   -1.1579   -0.2964   -0.0014 C   0  0  0  0  0  0  0  0  0  0  0  0
   -0.7698    1.0392    0.0079 C   0  0  0  0  0  0  0  0  0  0  0  0
    0.5904    1.3561    0.0093 C   0  0  0  0  0  0  0  0  0  0  0  0
    1.5519    0.3388    0.0015 C   0  0  0  0  0  0  0  0  0  0  0  0
    3.2151    0.8070    0.0038 Cl  0  0  0  0  0  0  0  0  0  0  0  0
    1.1481   -1.0020   -0.0078 C   0  0  0  0  0  0  0  0  0  0  0  0
    2.2784   -2.3091   -0.0178 Cl  0  0  0  0  0  0  0  0  0  0  0  0
   -0.2129   -1.3174   -0.0092 C   0  0  0  0  0  0  0  0  0  0  0  0
  1  2  1  0
  2  3  2  0
  3  4  1  0
  4  5  2  0
  5  6  1  0
  5  7  1  0
  7  8  1  0
  7  9  2  0
  9  2  1  0
M  END
>  <target>  (458) 
-1.25

$$$$

     RDKit          3D

 28 30  0  0  0  0  0  0  0  0999 V2000
   -4.3752    0.4191   -2.4530 C   0  0  0  0  0  0  0  0  0  0  0  0
   -4.5870    0.3119   -0.9604 C   0  0  0  0  0  0  0  0  0  0  0  0
   -5.6018   -0.7426   -0.5838 C   0  0  0  0  0  0  0  0  0  0  0  0
   -4.4455    1.5891   -0.1443 C   0  0  0  0  0  0  0  0  0  0  0  0
   -5.3415    1.8655    0.9902 C   0  0  0  0  0  0  0  0  0  0  0  0
   -5.0118    2.3640    2.1919 C   0  0  0  0  0  0  0  0  0  0  0  0
   -3.3846    2.7618    2.6092 Cl  0  0  0  0  0  0  0  0  0  0  0  0
   -6.2296    2.6291    3.3884 Cl  0  0  0  0  0  0  0  0  0  0  0  0
   -3.4071    0.4919   -0.0162 C   0  0  0  0  0  0  0  0  0  0  0  0
   -2.0261    0.7140   -0.5101 C   0  0  0  0  0  0  0  0  0  0  0  0
   -1.6973    1.6858   -1.1727 O   0  0  0  0  0  0  0  0  0  0  0  0
   -1.2065   -0.2958   -0.1310 O   0  0  0  0  0  0  0  0  0  0  0  0
    0.1538   -0.1579   -0.5892 C   0  0  0  0  0  0  0  0  0  0  0  0
    0.2916   -0.6275   -1.9867 C   0  0  0  0  0  0  0  0  0  0  0  0
    0.3871   -1.0041   -3.0823 N   0  0  0  0  0  0  0  0  0  0  0  0
    1.0457   -0.9623    0.3462 C   0  0  0  0  0  0  0  0  0  0  0  0
    0.6442   -2.2065    0.8638 C   0  0  0  0  0  0  0  0  0  0  0  0
    1.4862   -2.9328    1.7086 C   0  0  0  0  0  0  0  0  0  0  0  0
    2.7485   -2.4380    2.0306 C   0  0  0  0  0  0  0  0  0  0  0  0
    3.1747   -1.2241    1.4963 C   0  0  0  0  0  0  0  0  0  0  0  0
    4.4300   -0.7880    1.8580 O   0  0  0  0  0  0  0  0  0  0  0  0
    5.2101   -0.2409    0.8642 C   0  0  0  0  0  0  0  0  0  0  0  0
    5.8201    0.9844    1.1323 C   0  0  0  0  0  0  0  0  0  0  0  0
    6.6298    1.5808    0.1656 C   0  0  0  0  0  0  0  0  0  0  0  0
    6.8386    0.9443   -1.0589 C   0  0  0  0  0  0  0  0  0  0  0  0
    6.2479   -0.2937   -1.3155 C   0  0  0  0  0  0  0  0  0  0  0  0
    5.4402   -0.8940   -0.3498 C   0  0  0  0  0  0  0  0  0  0  0  0
    2.3221   -0.4767    0.6773 C   0  0  0  0  0  0  0  0  0  0  0  0
  1  2  1  0
  2  3  1  0
  2  4  1  0
  4  5  1  0
  5  6  2  3
  6  7  1  0
  6  8  1  0
  4  9  1  0
  9 10  1  0
 10 11  2  0
 10 12  1  0
 12 13  1  0
 13 14  1  0
 14 15  3  0
 13 16  1  0
 16 17  2  0
 17 18  1  0
 18 19  2  0
 19 20  1  0
 20 21  1  0
 21 22  1  0
 22 23  2  0
 23 24  1  0
 24 25  2  0
 25 26  1  0
 26 27  2  0
 20 28  2  0
  9  2  1  0
 28 16  1  0
 27 22  1  0
M  END
>  <target>  (459) 
-8.017000000000001

$$$$

     RDKit          3D

  9 10  0  0  0  0  0  0  0  0999 V2000
   -1.7843   -0.6878   -0.0721 C   0  0  0  0  0  0  0  0  0  0  0  0
   -1.7733    0.7054    0.0781 C   0  0  0  0  0  0  0  0  0  0  0  0
   -0.5722    1.4218    0.1540 C   0  0  0  0  0  0  0  0  0  0  0  0
    0.5877    0.6614    0.0706 C   0  0  0  0  0  0  0  0  0  0  0  0
    1.8774    1.1065    0.1171 O   0  0  0  0  0  0  0  0  0  0  0  0
    2.6129   -0.0350   -0.0068 C   0  0  0  0  0  0  0  0  0  0  0  0
    1.9227   -1.1487   -0.1261 N   0  0  0  0  0  0  0  0  0  0  0  0
    0.6207   -0.7168   -0.0780 C   0  0  0  0  0  0  0  0  0  0  0  0
   -0.5889   -1.4191   -0.1523 C   0  0  0  0  0  0  0  0  0  0  0  0
  1  2  2  0
  2  3  1  0
  3  4  2  0
  4  5  1  0
  5  6  1  0
  6  7  2  0
  7  8  1  0
  8  9  2  0
  8  4  1  0
  9  1  1  0
M  END
>  <target>  (460) 
-1.16

$$$$

     RDKit          3D

  6  5  0  0  0  0  0  0  0  0999 V2000
   -2.7456    0.0704    0.4776 C   0  0  0  0  0  0  0  0  0  0  0  0
   -1.4547    0.2999   -0.2921 C   0  0  0  0  0  0  0  0  0  0  0  0
   -0.2376   -0.1741    0.5016 C   0  0  0  0  0  0  0  0  0  0  0  0
    1.0568    0.0579   -0.2748 C   0  0  0  0  0  0  0  0  0  0  0  0
    2.2744   -0.4121    0.5102 C   0  0  0  0  0  0  0  0  0  0  0  0
    3.4534   -0.1951   -0.2534 O   0  0  0  0  0  0  0  0  0  0  0  0
  1  2  1  0
  2  3  1  0
  3  4  1  0
  4  5  1  0
  5  6  1  0
M  END
>  <target>  (461) 
-0.6

$$$$

     RDKit          3D

 11 11  0  0  0  0  0  0  0  0999 V2000
   -1.9947   -1.7635    0.5546 C   0  0  0  0  0  0  0  0  0  0  0  0
   -1.4709   -1.3210   -0.8031 C   0  0  0  0  0  0  0  0  0  0  0  0
   -0.7333   -0.0546   -0.7069 N   0  0  0  0  0  0  0  0  0  0  0  0
   -1.5290    1.1771   -0.8014 C   0  0  0  0  0  0  0  0  0  0  0  0
   -1.6200    1.8952    0.5386 C   0  0  0  0  0  0  0  0  0  0  0  0
    0.6519   -0.0305   -0.5659 C   0  0  0  0  0  0  0  0  0  0  0  0
    1.3884   -1.1685   -0.1894 C   0  0  0  0  0  0  0  0  0  0  0  0
    2.7833   -1.1510   -0.0467 C   0  0  0  0  0  0  0  0  0  0  0  0
    3.4933    0.0181   -0.2788 C   0  0  0  0  0  0  0  0  0  0  0  0
    2.8046    1.1636   -0.6507 C   0  0  0  0  0  0  0  0  0  0  0  0
    1.4095    1.1336   -0.7893 C   0  0  0  0  0  0  0  0  0  0  0  0
  1  2  1  0
  2  3  1  0
  3  4  1  0
  4  5  1  0
  3  6  1  0
  6  7  2  0
  7  8  1  0
  8  9  2  0
  9 10  1  0
 10 11  2  0
 11  6  1  0
M  END
>  <target>  (462) 
-3.03

$$$$

     RDKit          3D

  8  8  0  0  0  0  0  0  0  0999 V2000
   -0.1207    2.6802    0.3825 F   0  0  0  0  0  0  0  0  0  0  0  0
   -0.0554    1.3558    0.1935 C   0  0  0  0  0  0  0  0  0  0  0  0
    1.1906    0.7380    0.1106 C   0  0  0  0  0  0  0  0  0  0  0  0
    1.2663   -0.6416   -0.0862 C   0  0  0  0  0  0  0  0  0  0  0  0
    0.0924   -1.3880   -0.1979 C   0  0  0  0  0  0  0  0  0  0  0  0
   -1.1425   -0.7488   -0.1119 C   0  0  0  0  0  0  0  0  0  0  0  0
   -2.2651   -1.4714   -0.2201 F   0  0  0  0  0  0  0  0  0  0  0  0
   -1.2292    0.6228    0.0837 C   0  0  0  0  0  0  0  0  0  0  0  0
  1  2  1  0
  2  3  2  0
  3  4  1  0
  4  5  2  0
  5  6  1  0
  6  7  1  0
  6  8  2  0
  8  2  1  0
M  END
>  <target>  (463) 
-2.0

$$$$

     RDKit          3D

  5  4  0  0  0  0  0  0  0  0999 V2000
   -2.4176    0.4160   -0.0299 Cl  0  0  0  0  0  0  0  0  0  0  0  0
   -0.8520   -0.4307    0.0065 C   0  0  0  0  0  0  0  0  0  0  0  0
    0.2917    0.5687   -0.0147 C   0  0  0  0  0  0  0  0  0  0  0  0
    1.5768   -0.1360    0.0155 C   0  0  0  0  0  0  0  0  0  0  0  0
    2.5872   -0.7051    0.0397 N   0  0  0  0  0  0  0  0  0  0  0  0
  1  2  1  0
  2  3  1  0
  3  4  1  0
  4  5  3  0
M  END
>  <target>  (464) 
-0.29

$$$$

     RDKit          3D

 11 11  0  0  0  0  0  0  0  0999 V2000
   -1.6628   -0.2034   -1.3436 C   0  0  0  0  0  0  0  0  0  0  0  0
   -1.5563    0.0631    0.1676 C   0  0  0  0  0  0  0  0  0  0  0  0
   -1.4636   -1.2797    0.9121 C   0  0  0  0  0  0  0  0  0  0  0  0
   -2.8450    0.7788    0.6229 C   0  0  0  0  0  0  0  0  0  0  0  0
   -0.3536    0.9897    0.5035 C   0  0  0  0  0  0  0  0  0  0  0  0
    1.0224    0.4804    0.1390 C   0  0  0  0  0  0  0  0  0  0  0  0
    1.7706   -0.2723    1.0547 C   0  0  0  0  0  0  0  0  0  0  0  0
    3.0421   -0.7402    0.7185 C   0  0  0  0  0  0  0  0  0  0  0  0
    3.5812   -0.4574   -0.5346 C   0  0  0  0  0  0  0  0  0  0  0  0
    2.8504    0.2953   -1.4513 C   0  0  0  0  0  0  0  0  0  0  0  0
    1.5788    0.7636   -1.1161 C   0  0  0  0  0  0  0  0  0  0  0  0
  1  2  1  0
  2  3  1  0
  2  4  1  0
  2  5  1  0
  5  6  1  0
  6  7  2  0
  7  8  1  0
  8  9  2  0
  9 10  1  0
 10 11  2  0
 11  6  1  0
M  END
>  <target>  (465) 
-4.15

$$$$

     RDKit          3D

 17 18  0  0  0  0  0  0  0  0999 V2000
   -1.2788   -0.9501   -2.1902 O   0  0  0  0  0  0  0  0  0  0  0  0
   -1.2722   -0.1748   -1.2348 C   0  0  0  0  0  0  0  0  0  0  0  0
   -1.9678    1.0012   -1.3159 N   0  0  0  0  0  0  0  0  0  0  0  0
   -2.4863    1.6467   -0.2398 C   0  0  0  0  0  0  0  0  0  0  0  0
   -3.4442    2.4048   -0.3502 O   0  0  0  0  0  0  0  0  0  0  0  0
   -1.9669    1.3363    0.9757 N   0  0  0  0  0  0  0  0  0  0  0  0
   -1.2712    0.1862    1.2342 C   0  0  0  0  0  0  0  0  0  0  0  0
   -1.2770   -0.2831    2.3715 O   0  0  0  0  0  0  0  0  0  0  0  0
   -0.4759   -0.4024    0.0590 C   0  0  0  0  0  0  0  0  0  0  0  0
   -0.2211   -1.9198    0.2808 C   0  0  0  0  0  0  0  0  0  0  0  0
   -1.4788   -2.7788    0.4069 C   0  0  0  0  0  0  0  0  0  0  0  0
    0.9194    0.2771   -0.0409 C   0  0  0  0  0  0  0  0  0  0  0  0
    1.5898    0.7396    1.1084 C   0  0  0  0  0  0  0  0  0  0  0  0
    2.8509    1.3352    1.0192 C   0  0  0  0  0  0  0  0  0  0  0  0
    3.4776    1.4651   -0.2156 C   0  0  0  0  0  0  0  0  0  0  0  0
    2.8500    0.9872   -1.3610 C   0  0  0  0  0  0  0  0  0  0  0  0
    1.5888    0.3912   -1.2750 C   0  0  0  0  0  0  0  0  0  0  0  0
  1  2  2  0
  2  3  1  0
  3  4  1  0
  4  5  2  0
  4  6  1  0
  6  7  1  0
  7  8  2  0
  7  9  1  0
  9 10  1  0
 10 11  1  0
  9 12  1  0
 12 13  2  0
 13 14  1  0
 14 15  2  0
 15 16  1  0
 16 17  2  0
  9  2  1  0
 17 12  1  0
M  END
>  <target>  (466) 
-2.322

$$$$

     RDKit          3D

  8  8  0  0  0  0  0  0  0  0999 V2000
    1.8059   -2.4468    0.2148 Cl  0  0  0  0  0  0  0  0  0  0  0  0
    0.7865   -1.0560    0.0930 C   0  0  0  0  0  0  0  0  0  0  0  0
   -0.5945   -1.2819    0.0539 C   0  0  0  0  0  0  0  0  0  0  0  0
   -1.4837   -0.2107   -0.0439 C   0  0  0  0  0  0  0  0  0  0  0  0
   -0.9968    1.0928   -0.1032 C   0  0  0  0  0  0  0  0  0  0  0  0
    0.3791    1.3272   -0.0648 C   0  0  0  0  0  0  0  0  0  0  0  0
    1.2760    0.2549    0.0334 C   0  0  0  0  0  0  0  0  0  0  0  0
    3.3192    0.7284    0.0829 I   0  0  0  0  0  0  0  0  0  0  0  0
  1  2  1  0
  2  3  2  0
  3  4  1  0
  4  5  2  0
  5  6  1  0
  6  7  2  0
  7  8  1  0
  7  2  1  0
M  END
>  <target>  (467) 
-3.54

$$$$

     RDKit          3D

  9 10  0  0  0  0  0  0  0  0999 V2000
   -1.8062   -0.5368    0.0173 C   0  0  0  0  0  0  0  0  0  0  0  0
   -1.5771    0.8430    0.0163 C   0  0  0  0  0  0  0  0  0  0  0  0
   -0.2787    1.3677    0.0040 C   0  0  0  0  0  0  0  0  0  0  0  0
    0.7636    0.4395   -0.0071 C   0  0  0  0  0  0  0  0  0  0  0  0
    2.1247    0.5550   -0.0205 N   0  0  0  0  0  0  0  0  0  0  0  0
    2.7318   -0.6431   -0.0275 N   0  0  0  0  0  0  0  0  0  0  0  0
    1.7811   -1.5699   -0.0189 N   0  0  0  0  0  0  0  0  0  0  0  0
    0.5676   -0.9350   -0.0064 C   0  0  0  0  0  0  0  0  0  0  0  0
   -0.7380   -1.4440    0.0060 C   0  0  0  0  0  0  0  0  0  0  0  0
  1  2  2  0
  2  3  1  0
  3  4  2  0
  4  5  1  0
  5  6  1  0
  6  7  2  0
  7  8  1  0
  8  9  2  0
  8  4  1  0
  9  1  1  0
M  END
>  <target>  (468) 
-0.78

$$$$

     RDKit          3D

 16 17  0  0  0  0  0  0  0  0999 V2000
    4.3647   -1.8297    0.4697 C   0  0  0  0  0  0  0  0  0  0  0  0
    3.3273   -1.5550   -0.4849 N   0  0  0  0  0  0  0  0  0  0  0  0
    2.4815   -0.4868   -0.3578 C   0  0  0  0  0  0  0  0  0  0  0  0
    2.4847    0.2872    0.5906 O   0  0  0  0  0  0  0  0  0  0  0  0
    1.6724   -0.4180   -1.4793 O   0  0  0  0  0  0  0  0  0  0  0  0
    0.6996    0.5697   -1.3775 C   0  0  0  0  0  0  0  0  0  0  0  0
    0.8626    1.7712   -2.0665 C   0  0  0  0  0  0  0  0  0  0  0  0
   -0.1361    2.7554   -1.9928 C   0  0  0  0  0  0  0  0  0  0  0  0
   -1.2997    2.5371   -1.2457 C   0  0  0  0  0  0  0  0  0  0  0  0
   -1.4404    1.3296   -0.5800 C   0  0  0  0  0  0  0  0  0  0  0  0
   -2.5746    0.8285    0.2299 C   0  0  0  0  0  0  0  0  0  0  0  0
   -1.9342   -0.4473    0.8244 C   0  0  0  0  0  0  0  0  0  0  0  0
   -1.4770   -0.2317    2.2733 C   0  0  0  0  0  0  0  0  0  0  0  0
   -2.8985   -1.6322    0.7545 C   0  0  0  0  0  0  0  0  0  0  0  0
   -0.7603   -0.7888    0.0344 O   0  0  0  0  0  0  0  0  0  0  0  0
   -0.4583    0.3572   -0.6535 C   0  0  0  0  0  0  0  0  0  0  0  0
  1  2  1  0
  2  3  1  0
  3  4  2  0
  3  5  1  0
  5  6  1  0
  6  7  2  0
  7  8  1  0
  8  9  2  0
  9 10  1  0
 10 11  1  0
 11 12  1  0
 12 13  1  0
 12 14  1  0
 12 15  1  0
 15 16  1  0
 16  6  1  0
 16 10  2  0
M  END
>  <target>  (469) 
-2.8

$$$$

     RDKit          3D

  9  9  0  0  0  0  0  0  0  0999 V2000
   -2.5242   -0.8483   -0.2584 C   0  0  0  0  0  0  0  0  0  0  0  0
   -1.2643   -0.0541   -0.0629 C   0  0  0  0  0  0  0  0  0  0  0  0
   -1.3317    1.3228    0.1812 C   0  0  0  0  0  0  0  0  0  0  0  0
   -0.1662    2.0643    0.3633 C   0  0  0  0  0  0  0  0  0  0  0  0
    1.0784    1.4373    0.3032 C   0  0  0  0  0  0  0  0  0  0  0  0
    1.1771    0.0592    0.0602 C   0  0  0  0  0  0  0  0  0  0  0  0
    2.5359   -0.5769    0.0032 C   0  0  0  0  0  0  0  0  0  0  0  0
   -0.0066   -0.6735   -0.1211 C   0  0  0  0  0  0  0  0  0  0  0  0
    0.0097   -2.0216   -0.3622 O   0  0  0  0  0  0  0  0  0  0  0  0
  1  2  1  0
  2  3  2  0
  3  4  1  0
  4  5  2  0
  5  6  1  0
  6  7  1  0
  6  8  2  0
  8  9  1  0
  8  2  1  0
M  END
>  <target>  (470) 
-1.29

$$$$

     RDKit          3D

  6  5  0  0  0  0  0  0  0  0999 V2000
   -1.4589    1.3156    0.2491 C   0  0  0  0  0  0  0  0  0  0  0  0
   -0.5668    0.0860    0.4543 C   0  0  0  0  0  0  0  0  0  0  0  0
   -1.2009   -1.1184   -0.2482 C   0  0  0  0  0  0  0  0  0  0  0  0
    0.8727    0.3771   -0.0198 C   0  0  0  0  0  0  0  0  0  0  0  0
    1.8440   -0.7593    0.2794 C   0  0  0  0  0  0  0  0  0  0  0  0
    0.8819    0.6343   -1.4220 O   0  0  0  0  0  0  0  0  0  0  0  0
  1  2  1  0
  2  3  1  0
  2  4  1  0
  4  5  1  0
  4  6  1  0
M  END
>  <target>  (471) 
-0.18

$$$$

     RDKit          3D

 14 15  0  0  0  0  0  0  0  0999 V2000
    1.6897    0.4108   -0.9886 C   0  0  0  0  0  0  0  0  0  0  0  0
    2.8854    1.1124   -0.8204 C   0  0  0  0  0  0  0  0  0  0  0  0
    3.7093    0.8349    0.2676 C   0  0  0  0  0  0  0  0  0  0  0  0
    3.3389   -0.1435    1.1870 C   0  0  0  0  0  0  0  0  0  0  0  0
    2.1427   -0.8451    1.0202 C   0  0  0  0  0  0  0  0  0  0  0  0
    1.2975   -0.5778   -0.0684 C   0  0  0  0  0  0  0  0  0  0  0  0
   -0.0099   -1.3256   -0.2775 C   0  0  0  0  0  0  0  0  0  0  0  0
   -0.1549   -2.4019    0.6538 O   0  0  0  0  0  0  0  0  0  0  0  0
   -1.2465   -0.4454   -0.2050 C   0  0  0  0  0  0  0  0  0  0  0  0
   -2.1443   -0.3934   -1.2825 C   0  0  0  0  0  0  0  0  0  0  0  0
   -3.2916    0.3992   -1.2121 C   0  0  0  0  0  0  0  0  0  0  0  0
   -3.5570    1.1445   -0.0649 C   0  0  0  0  0  0  0  0  0  0  0  0
   -2.6774    1.0982    1.0146 C   0  0  0  0  0  0  0  0  0  0  0  0
   -1.5304    0.3064    0.9472 C   0  0  0  0  0  0  0  0  0  0  0  0
  1  2  2  0
  2  3  1  0
  3  4  2  0
  4  5  1  0
  5  6  2  0
  6  7  1  0
  7  8  1  0
  7  9  1  0
  9 10  2  0
 10 11  1  0
 11 12  2  0
 12 13  1  0
 13 14  2  0
  6  1  1  0
 14  9  1  0
M  END
>  <target>  (472) 
-2.55

$$$$

     RDKit          3D

 13 12  0  0  0  0  0  0  0  0999 V2000
   -4.7527    0.6871   -2.1677 C   0  0  0  0  0  0  0  0  0  0  0  0
   -3.8386    0.7021   -0.9529 C   0  0  0  0  0  0  0  0  0  0  0  0
   -2.9500   -0.5406   -0.9054 C   0  0  0  0  0  0  0  0  0  0  0  0
   -2.0317   -0.5217    0.3188 C   0  0  0  0  0  0  0  0  0  0  0  0
   -1.1397   -1.7640    0.3612 C   0  0  0  0  0  0  0  0  0  0  0  0
   -0.2804   -1.8555    1.6258 C   0  0  0  0  0  0  0  0  0  0  0  0
    0.6872   -0.6918    1.8624 C   0  0  0  0  0  0  0  0  0  0  0  0
    1.7019   -0.5036    0.7336 C   0  0  0  0  0  0  0  0  0  0  0  0
    2.7126    0.5910    1.0745 C   0  0  0  0  0  0  0  0  0  0  0  0
    3.7192    0.7948   -0.0337 C   0  0  0  0  0  0  0  0  0  0  0  0
    3.7565    0.1716   -1.0848 O   0  0  0  0  0  0  0  0  0  0  0  0
    4.5861    1.7864    0.3205 O   0  0  0  0  0  0  0  0  0  0  0  0
    5.5852    2.0613   -0.6622 C   0  0  0  0  0  0  0  0  0  0  0  0
  1  2  1  0
  2  3  1  0
  3  4  1  0
  4  5  1  0
  5  6  1  0
  6  7  1  0
  7  8  1  0
  8  9  1  0
  9 10  1  0
 10 11  2  0
 10 12  1  0
 12 13  1  0
M  END
>  <target>  (473) 
-4.69

$$$$

     RDKit          3D

 17 17  0  0  0  0  0  0  0  0999 V2000
   -2.9814    1.5092    1.8196 C   0  0  0  0  0  0  0  0  0  0  0  0
   -1.8501    0.7350    1.4716 O   0  0  0  0  0  0  0  0  0  0  0  0
   -1.8416   -0.0054    0.0292 P   0  0  0  0  0  0  0  0  0  0  0  0
   -1.9499    1.1481   -1.5278 S   0  0  0  0  0  0  0  0  0  0  0  0
   -3.0510   -1.0657    0.2253 O   0  0  0  0  0  0  0  0  0  0  0  0
   -3.2231   -2.0706   -0.7552 C   0  0  0  0  0  0  0  0  0  0  0  0
   -0.5450   -0.9711    0.1675 O   0  0  0  0  0  0  0  0  0  0  0  0
    0.7225   -0.4887   -0.0123 C   0  0  0  0  0  0  0  0  0  0  0  0
    1.2755    0.3868    0.9226 C   0  0  0  0  0  0  0  0  0  0  0  0
    2.5743    0.8667    0.7386 C   0  0  0  0  0  0  0  0  0  0  0  0
    3.3147    0.4543   -0.3795 C   0  0  0  0  0  0  0  0  0  0  0  0
    2.7687   -0.4385   -1.3107 C   0  0  0  0  0  0  0  0  0  0  0  0
    1.4708   -0.9117   -1.1172 C   0  0  0  0  0  0  0  0  0  0  0  0
    0.8107   -2.0181   -2.2652 Cl  0  0  0  0  0  0  0  0  0  0  0  0
    4.6813    0.9566   -0.5709 N   0  0  0  0  0  0  0  0  0  0  0  0
    5.1233    1.7543    0.2675 O   0  0  0  0  0  0  0  0  0  0  0  0
    5.3108    0.5494   -1.5567 O   0  0  0  0  0  0  0  0  0  0  0  0
  1  2  1  0
  2  3  1  0
  3  4  2  0
  3  5  1  0
  5  6  1  0
  3  7  1  0
  7  8  1  0
  8  9  2  0
  9 10  1  0
 10 11  2  0
 11 12  1  0
 12 13  2  0
 13 14  1  0
 11 15  1  0
 15 16  1  0
 15 17  2  0
 13  8  1  0
M  CHG  2  15   1  16  -1
M  END
>  <target>  (474) 
-4.31

$$$$

     RDKit          3D

  5  4  0  0  0  0  0  0  0  0999 V2000
   -1.4795   -0.0126    0.1962 C   0  0  0  0  0  0  0  0  0  0  0  0
   -0.0626    0.0340   -0.3812 C   0  0  0  0  0  0  0  0  0  0  0  0
    0.6532   -1.2859   -0.0802 C   0  0  0  0  0  0  0  0  0  0  0  0
    0.6858    1.2362    0.1938 C   0  0  0  0  0  0  0  0  0  0  0  0
    2.2988    1.6221   -0.8307 Br  0  0  0  0  0  0  0  0  0  0  0  0
  1  2  1  0
  2  3  1  0
  2  4  1  0
  4  5  1  0
M  END
>  <target>  (475) 
-2.43

$$$$

     RDKit          3D

  3  2  0  0  0  0  0  0  0  0999 V2000
   -0.7917    0.1498   -0.0415 C   0  0  0  0  0  0  0  0  0  0  0  0
    0.6438   -0.3239    0.1084 C   0  0  0  0  0  0  0  0  0  0  0  0
    2.0121    1.2015   -0.4786 I   0  0  0  0  0  0  0  0  0  0  0  0
  1  2  1  0
  2  3  1  0
M  END
>  <target>  (476) 
-1.6

$$$$

     RDKit          3D

 17 17  0  0  0  0  0  0  0  0999 V2000
    3.9832    2.0717   -0.8772 C   0  0  0  0  0  0  0  0  0  0  0  0
    3.3466    1.1206    0.0133 N   0  0  0  0  0  0  0  0  0  0  0  0
    3.8581    1.0496    1.3712 C   0  0  0  0  0  0  0  0  0  0  0  0
    2.0841    0.6369   -0.3269 C   0  0  0  0  0  0  0  0  0  0  0  0
    1.5587    0.8499   -1.4163 O   0  0  0  0  0  0  0  0  0  0  0  0
    1.5237   -0.1251    0.6847 O   0  0  0  0  0  0  0  0  0  0  0  0
    0.2039   -0.4834    0.3989 C   0  0  0  0  0  0  0  0  0  0  0  0
   -0.7240    0.3059    0.9678 N   0  0  0  0  0  0  0  0  0  0  0  0
   -2.0057   -0.0143    0.7623 C   0  0  0  0  0  0  0  0  0  0  0  0
   -2.3666   -1.0904    0.0417 N   0  0  0  0  0  0  0  0  0  0  0  0
   -1.4083   -1.8803   -0.4938 C   0  0  0  0  0  0  0  0  0  0  0  0
   -1.9053   -3.0529   -1.2876 C   0  0  0  0  0  0  0  0  0  0  0  0
   -0.0607   -1.6361   -0.3146 C   0  0  0  0  0  0  0  0  0  0  0  0
    1.0139   -2.4909   -0.9008 C   0  0  0  0  0  0  0  0  0  0  0  0
   -3.0032    0.7781    1.3385 N   0  0  0  0  0  0  0  0  0  0  0  0
   -2.5731    2.1291    1.6618 C   0  0  0  0  0  0  0  0  0  0  0  0
   -4.3076    0.6406    0.7108 C   0  0  0  0  0  0  0  0  0  0  0  0
  1  2  1  0
  2  3  1  0
  2  4  1  0
  4  5  2  0
  4  6  1  0
  6  7  1  0
  7  8  2  0
  8  9  1  0
  9 10  2  0
 10 11  1  0
 11 12  1  0
 11 13  2  0
 13 14  1  0
  9 15  1  0
 15 16  1  0
 15 17  1  0
 13  7  1  0
M  END
>  <target>  (477) 
-1.95

$$$$

     RDKit          3D

  7  6  0  0  0  0  0  0  0  0999 V2000
   -3.1882    0.1845    0.0367 C   0  0  0  0  0  0  0  0  0  0  0  0
   -1.8703   -0.2843   -0.5590 C   0  0  0  0  0  0  0  0  0  0  0  0
   -0.6763    0.2596    0.2252 C   0  0  0  0  0  0  0  0  0  0  0  0
    0.6482   -0.2144   -0.3775 C   0  0  0  0  0  0  0  0  0  0  0  0
    1.8431    0.3342    0.4098 C   0  0  0  0  0  0  0  0  0  0  0  0
    3.1835   -0.0556   -0.1937 C   0  0  0  0  0  0  0  0  0  0  0  0
    3.5915   -1.9292    0.1409 Br  0  0  0  0  0  0  0  0  0  0  0  0
  1  2  1  0
  2  3  1  0
  3  4  1  0
  4  5  1  0
  5  6  1  0
  6  7  1  0
M  END
>  <target>  (478) 
-3.81

$$$$

     RDKit          3D

  6  5  0  0  0  0  0  0  0  0999 V2000
    2.8027   -0.1129    0.4998 C   0  0  0  0  0  0  0  0  0  0  0  0
    1.4491   -0.3488   -0.1536 C   0  0  0  0  0  0  0  0  0  0  0  0
    0.3305    0.3673    0.6070 C   0  0  0  0  0  0  0  0  0  0  0  0
   -1.0430    0.2640   -0.0815 C   0  0  0  0  0  0  0  0  0  0  0  0
   -2.0630    1.1290    0.6634 C   0  0  0  0  0  0  0  0  0  0  0  0
   -1.5499   -1.1767   -0.1617 C   0  0  0  0  0  0  0  0  0  0  0  0
  1  2  1  0
  2  3  1  0
  3  4  1  0
  4  5  1  0
  4  6  1  0
M  END
>  <target>  (479) 
-3.74

$$$$

     RDKit          3D

 27 28  0  0  0  0  0  0  0  0999 V2000
    5.2727    2.9333   -0.7689 C   0  0  0  0  0  0  0  0  0  0  0  0
    4.3913    1.7254   -0.7329 C   0  0  0  0  0  0  0  0  0  0  0  0
    3.5328    1.4279   -1.7922 C   0  0  0  0  0  0  0  0  0  0  0  0
    3.5165    2.2186   -2.8752 F   0  0  0  0  0  0  0  0  0  0  0  0
    2.6857    0.3193   -1.7441 C   0  0  0  0  0  0  0  0  0  0  0  0
    1.8749    0.0666   -2.7822 F   0  0  0  0  0  0  0  0  0  0  0  0
    2.6665   -0.5246   -0.6334 C   0  0  0  0  0  0  0  0  0  0  0  0
    1.7245   -1.6860   -0.5661 C   0  0  0  0  0  0  0  0  0  0  0  0
    0.4725   -1.1845   -0.0994 O   0  0  0  0  0  0  0  0  0  0  0  0
   -0.4817   -2.1369    0.0382 C   0  0  0  0  0  0  0  0  0  0  0  0
   -0.3491   -3.3293   -0.1905 O   0  0  0  0  0  0  0  0  0  0  0  0
   -1.7516   -1.5712    0.5497 C   0  0  0  0  0  0  0  0  0  0  0  0
   -2.2698   -0.2375    0.0468 C   0  0  0  0  0  0  0  0  0  0  0  0
   -2.8449    0.7171    1.0076 C   0  0  0  0  0  0  0  0  0  0  0  0
   -2.1903    1.4698    1.9133 C   0  0  0  0  0  0  0  0  0  0  0  0
   -0.4602    1.3788    2.0581 Cl  0  0  0  0  0  0  0  0  0  0  0  0
   -2.8491    2.4373    2.8533 C   0  0  0  0  0  0  0  0  0  0  0  0
   -2.4078    3.7091    2.6728 F   0  0  0  0  0  0  0  0  0  0  0  0
   -4.2003    2.4748    2.6957 F   0  0  0  0  0  0  0  0  0  0  0  0
   -2.6252    2.1196    4.1547 F   0  0  0  0  0  0  0  0  0  0  0  0
   -3.0012   -1.5203   -0.3177 C   0  0  0  0  0  0  0  0  0  0  0  0
   -2.9232   -1.9636   -1.7604 C   0  0  0  0  0  0  0  0  0  0  0  0
   -4.3049   -1.8940    0.3466 C   0  0  0  0  0  0  0  0  0  0  0  0
    3.5065   -0.2141    0.4361 C   0  0  0  0  0  0  0  0  0  0  0  0
    3.5015   -0.9889    1.5305 F   0  0  0  0  0  0  0  0  0  0  0  0
    4.3540    0.8943    0.3879 C   0  0  0  0  0  0  0  0  0  0  0  0
    5.1434    1.1621    1.4384 F   0  0  0  0  0  0  0  0  0  0  0  0
  1  2  1  0
  2  3  2  0
  3  4  1  0
  3  5  1  0
  5  6  1  0
  5  7  2  0
  7  8  1  0
  8  9  1  0
  9 10  1  0
 10 11  2  0
 10 12  1  0
 12 13  1  0
 13 14  1  0
 14 15  2  3
 15 16  1  0
 15 17  1  0
 17 18  1  0
 17 19  1  0
 17 20  1  0
 13 21  1  0
 21 22  1  0
 21 23  1  0
  7 24  1  0
 24 25  1  0
 24 26  2  0
 26 27  1  0
 26  2  1  0
 21 12  1  0
M  END
>  <target>  (480) 
-7.321000000000001

$$$$

     RDKit          3D

 19 19  0  0  0  0  0  0  0  0999 V2000
   -0.9587    2.7814    1.6633 C   0  0  0  0  0  0  0  0  0  0  0  0
   -0.8145    2.2063    0.2617 C   0  0  0  0  0  0  0  0  0  0  0  0
   -1.6247    0.9436    0.0678 C   0  0  0  0  0  0  0  0  0  0  0  0
   -3.0120    1.0777   -0.1115 C   0  0  0  0  0  0  0  0  0  0  0  0
   -3.8269   -0.0407   -0.2608 C   0  0  0  0  0  0  0  0  0  0  0  0
   -3.2693   -1.3154   -0.2412 C   0  0  0  0  0  0  0  0  0  0  0  0
   -1.8869   -1.4927   -0.0790 C   0  0  0  0  0  0  0  0  0  0  0  0
   -1.3464   -2.8986   -0.0851 C   0  0  0  0  0  0  0  0  0  0  0  0
   -1.0628   -0.3530    0.0892 C   0  0  0  0  0  0  0  0  0  0  0  0
    0.3401   -0.5039    0.2997 N   0  0  0  0  0  0  0  0  0  0  0  0
    1.2231   -0.6034   -0.9026 C   0  0  0  0  0  0  0  0  0  0  0  0
    0.5617   -0.2437   -2.2471 C   0  0  0  0  0  0  0  0  0  0  0  0
    2.5100    0.2465   -0.7287 C   0  0  0  0  0  0  0  0  0  0  0  0
    3.4058    0.0217   -1.8238 O   0  0  0  0  0  0  0  0  0  0  0  0
    4.6242    0.7349   -1.6567 C   0  0  0  0  0  0  0  0  0  0  0  0
    0.8040   -1.0989    1.4876 C   0  0  0  0  0  0  0  0  0  0  0  0
    1.8993   -1.6664    1.5468 O   0  0  0  0  0  0  0  0  0  0  0  0
   -0.0862   -1.0072    2.7241 C   0  0  0  0  0  0  0  0  0  0  0  0
    0.8419   -0.2751    4.0570 Cl  0  0  0  0  0  0  0  0  0  0  0  0
  1  2  1  0
  2  3  1  0
  3  4  2  0
  4  5  1  0
  5  6  2  0
  6  7  1  0
  7  8  1  0
  7  9  2  0
  9 10  1  0
 10 11  1  0
 11 12  1  0
 11 13  1  0
 13 14  1  0
 14 15  1  0
 10 16  1  0
 16 17  2  0
 16 18  1  0
 18 19  1  0
  9  3  1  0
M  END
>  <target>  (481) 
-2.73

$$$$

     RDKit          3D

 11 11  0  0  0  0  0  0  0  0999 V2000
    3.3410   -1.7184   -1.2955 O   0  0  0  0  0  0  0  0  0  0  0  0
    2.4786   -1.2528   -0.2941 N   0  0  0  0  0  0  0  0  0  0  0  0
    1.4238   -0.7436   -0.8484 C   0  0  0  0  0  0  0  0  0  0  0  0
    0.3692   -0.1887   -0.0489 C   0  0  0  0  0  0  0  0  0  0  0  0
    0.2088   -0.0621    1.3209 C   0  0  0  0  0  0  0  0  0  0  0  0
   -1.0419    0.5712    1.5350 C   0  0  0  0  0  0  0  0  0  0  0  0
   -1.5577    0.7869    0.2797 C   0  0  0  0  0  0  0  0  0  0  0  0
   -0.7206    0.3350   -0.6926 O   0  0  0  0  0  0  0  0  0  0  0  0
   -2.7802    1.3842   -0.1565 N   0  0  0  0  0  0  0  0  0  0  0  0
   -2.9904    1.4482   -1.3742 O   0  0  0  0  0  0  0  0  0  0  0  0
   -3.5377    1.7934    0.7338 O   0  0  0  0  0  0  0  0  0  0  0  0
  1  2  1  0
  2  3  2  3
  3  4  1  0
  4  5  2  0
  5  6  1  0
  6  7  2  0
  7  8  1  0
  7  9  1  0
  9 10  1  0
  9 11  2  0
  8  4  1  0
M  CHG  2   9   1  10  -1
M  END
>  <target>  (482) 
-2.19

$$$$

     RDKit          3D

 35 37  0  0  0  0  0  0  0  0999 V2000
   -2.4500   -2.2319    1.2461 C   0  0  0  0  0  0  0  0  0  0  0  0
   -2.8823   -0.7963    1.5612 C   0  0  0  0  0  0  0  0  0  0  0  0
   -2.7595   -0.5348    3.0664 C   0  0  0  0  0  0  0  0  0  0  0  0
   -2.1278    0.2395    0.6881 C   0  0  0  0  0  0  0  0  0  0  0  0
   -2.7208    1.5892    0.8198 N   0  0  0  0  0  0  0  0  0  0  0  0
   -4.0212    1.9185    0.4326 C   0  0  0  0  0  0  0  0  0  0  0  0
   -4.6865    1.2635   -0.6111 C   0  0  0  0  0  0  0  0  0  0  0  0
   -5.9745    1.6502   -1.0172 C   0  0  0  0  0  0  0  0  0  0  0  0
   -6.6371    2.7188   -0.3980 C   0  0  0  0  0  0  0  0  0  0  0  0
   -5.9715    3.4068    0.6239 C   0  0  0  0  0  0  0  0  0  0  0  0
   -4.6865    3.0159    1.0233 C   0  0  0  0  0  0  0  0  0  0  0  0
   -3.9339    3.9123    2.3018 Cl  0  0  0  0  0  0  0  0  0  0  0  0
   -8.0156    3.1538   -0.8421 C   0  0  0  0  0  0  0  0  0  0  0  0
   -8.8055    3.5464    0.1955 F   0  0  0  0  0  0  0  0  0  0  0  0
   -8.7068    2.1710   -1.4839 F   0  0  0  0  0  0  0  0  0  0  0  0
   -7.9745    4.2071   -1.7028 F   0  0  0  0  0  0  0  0  0  0  0  0
   -0.6313    0.3201    1.0746 C   0  0  0  0  0  0  0  0  0  0  0  0
   -0.1588    1.1209    1.8730 O   0  0  0  0  0  0  0  0  0  0  0  0
    0.0972   -0.6307    0.4266 O   0  0  0  0  0  0  0  0  0  0  0  0
    1.5058   -0.6541    0.7677 C   0  0  0  0  0  0  0  0  0  0  0  0
    1.7334   -1.3697    2.0453 C   0  0  0  0  0  0  0  0  0  0  0  0
    1.8925   -1.9458    3.0422 N   0  0  0  0  0  0  0  0  0  0  0  0
    2.2388   -1.3381   -0.3782 C   0  0  0  0  0  0  0  0  0  0  0  0
    1.7729   -2.5487   -0.9240 C   0  0  0  0  0  0  0  0  0  0  0  0
    2.4551   -3.1692   -1.9728 C   0  0  0  0  0  0  0  0  0  0  0  0
    3.6190   -2.5981   -2.4824 C   0  0  0  0  0  0  0  0  0  0  0  0
    4.1102   -1.4176   -1.9294 C   0  0  0  0  0  0  0  0  0  0  0  0
    5.2451   -0.8816   -2.4922 O   0  0  0  0  0  0  0  0  0  0  0  0
    6.2827   -0.5609   -1.6452 C   0  0  0  0  0  0  0  0  0  0  0  0
    6.9751    0.6185   -1.9244 C   0  0  0  0  0  0  0  0  0  0  0  0
    8.0648    0.9911   -1.1365 C   0  0  0  0  0  0  0  0  0  0  0  0
    8.4712    0.1770   -0.0791 C   0  0  0  0  0  0  0  0  0  0  0  0
    7.7924   -1.0125    0.1878 C   0  0  0  0  0  0  0  0  0  0  0  0
    6.7011   -1.3873   -0.5986 C   0  0  0  0  0  0  0  0  0  0  0  0
    3.4194   -0.7771   -0.8957 C   0  0  0  0  0  0  0  0  0  0  0  0
  1  2  1  0
  2  3  1  0
  2  4  1  0
  4  5  1  0
  5  6  1  0
  6  7  2  0
  7  8  1  0
  8  9  2  0
  9 10  1  0
 10 11  2  0
 11 12  1  0
  9 13  1  0
 13 14  1  0
 13 15  1  0
 13 16  1  0
  4 17  1  0
 17 18  2  0
 17 19  1  0
 19 20  1  0
 20 21  1  0
 21 22  3  0
 20 23  1  0
 23 24  2  0
 24 25  1  0
 25 26  2  0
 26 27  1  0
 27 28  1  0
 28 29  1  0
 29 30  2  0
 30 31  1  0
 31 32  2  0
 32 33  1  0
 33 34  2  0
 27 35  2  0
 11  6  1  0
 35 23  1  0
 34 29  1  0
M  END
>  <target>  (483) 
-8.003

$$$$

     RDKit          3D

  6  6  0  0  0  0  0  0  0  0999 V2000
    1.9344   -0.1160    0.1001 N   0  0  0  0  0  0  0  0  0  0  0  0
    0.6054   -0.0950    0.0806 C   0  0  0  0  0  0  0  0  0  0  0  0
   -0.0303    1.1065    0.1166 N   0  0  0  0  0  0  0  0  0  0  0  0
   -1.2983    0.7705    0.0792 C   0  0  0  0  0  0  0  0  0  0  0  0
   -1.4016   -0.5816    0.0087 N   0  0  0  0  0  0  0  0  0  0  0  0
   -0.1900   -1.1561   -0.0118 N   0  0  0  0  0  0  0  0  0  0  0  0
  1  2  1  0
  2  3  1  0
  3  4  2  0
  4  5  1  0
  5  6  1  0
  6  2  2  0
M  END
>  <target>  (484) 
0.522

$$$$

     RDKit          3D

  4  3  0  0  0  0  0  0  0  0999 V2000
   -1.2918   -1.3395   -0.4492 Br  0  0  0  0  0  0  0  0  0  0  0  0
    0.0017   -0.0023    0.1151 C   0  0  0  0  0  0  0  0  0  0  0  0
   -0.5312    1.7957   -0.3976 Br  0  0  0  0  0  0  0  0  0  0  0  0
    1.8038   -0.4298   -0.4758 Br  0  0  0  0  0  0  0  0  0  0  0  0
  1  2  1  0
  2  3  1  0
  2  4  1  0
M  END
>  <target>  (485) 
-1.91

$$$$

     RDKit          3D

 12 11  0  0  0  0  0  0  0  0999 V2000
    2.2683   -1.4507   -0.2146 C   0  0  0  0  0  0  0  0  0  0  0  0
    1.4942   -0.4557   -0.8554 O   0  0  0  0  0  0  0  0  0  0  0  0
    0.2556    0.1712   -0.0261 P   0  0  0  0  0  0  0  0  0  0  0  0
    0.6018    0.5167    1.3869 O   0  0  0  0  0  0  0  0  0  0  0  0
   -0.1137    1.4508   -0.9478 O   0  0  0  0  0  0  0  0  0  0  0  0
    0.7423    2.5738   -0.8465 C   0  0  0  0  0  0  0  0  0  0  0  0
   -1.1152   -0.9518   -0.3227 C   0  0  0  0  0  0  0  0  0  0  0  0
   -1.4591   -0.8566   -1.7337 O   0  0  0  0  0  0  0  0  0  0  0  0
   -2.3125   -0.6965    0.6023 C   0  0  0  0  0  0  0  0  0  0  0  0
   -2.9255    0.9803    0.4896 Cl  0  0  0  0  0  0  0  0  0  0  0  0
   -1.9265   -1.0817    2.3096 Cl  0  0  0  0  0  0  0  0  0  0  0  0
   -3.6793   -1.7932    0.1409 Cl  0  0  0  0  0  0  0  0  0  0  0  0
  1  2  1  0
  2  3  1  0
  3  4  2  0
  3  5  1  0
  5  6  1  0
  3  7  1  0
  7  8  1  0
  7  9  1  0
  9 10  1  0
  9 11  1  0
  9 12  1  0
M  END
>  <target>  (486) 
-0.22

$$$$

     RDKit          3D

 21 22  0  0  0  0  0  0  0  0999 V2000
   -3.1877   -2.4982   -1.1903 C   0  0  0  0  0  0  0  0  0  0  0  0
   -2.9548   -2.2410    0.2842 C   0  0  0  0  0  0  0  0  0  0  0  0
   -2.7444   -0.8493    0.4703 O   0  0  0  0  0  0  0  0  0  0  0  0
   -1.8708   -0.3475    1.7461 P   0  0  0  0  0  0  0  0  0  0  0  0
   -2.6397   -0.8577    3.4629 S   0  0  0  0  0  0  0  0  0  0  0  0
   -1.9352    1.2577    1.4790 O   0  0  0  0  0  0  0  0  0  0  0  0
   -3.1916    1.9180    1.5225 C   0  0  0  0  0  0  0  0  0  0  0  0
   -3.0683    3.2283    0.7717 C   0  0  0  0  0  0  0  0  0  0  0  0
    0.1253   -0.8576    1.3412 S   0  0  0  0  0  0  0  0  0  0  0  0
    0.3796   -0.0142   -0.2318 C   0  0  0  0  0  0  0  0  0  0  0  0
    1.6139   -0.4102   -0.8429 N   0  0  0  0  0  0  0  0  0  0  0  0
    1.7373   -1.3458   -1.8477 C   0  0  0  0  0  0  0  0  0  0  0  0
    0.8182   -1.9542   -2.3792 O   0  0  0  0  0  0  0  0  0  0  0  0
    3.0812   -1.5200   -2.2088 O   0  0  0  0  0  0  0  0  0  0  0  0
    3.7380   -0.6480   -1.3542 C   0  0  0  0  0  0  0  0  0  0  0  0
    5.1016   -0.4527   -1.3068 C   0  0  0  0  0  0  0  0  0  0  0  0
    5.5763    0.4667   -0.3694 C   0  0  0  0  0  0  0  0  0  0  0  0
    7.2682    0.7591   -0.2511 Cl  0  0  0  0  0  0  0  0  0  0  0  0
    4.6968    1.1609    0.4854 C   0  0  0  0  0  0  0  0  0  0  0  0
    3.3165    0.9449    0.4152 C   0  0  0  0  0  0  0  0  0  0  0  0
    2.8737    0.0325   -0.5183 C   0  0  0  0  0  0  0  0  0  0  0  0
  1  2  1  0
  2  3  1  0
  3  4  1  0
  4  5  2  0
  4  6  1  0
  6  7  1  0
  7  8  1  0
  4  9  1  0
  9 10  1  0
 10 11  1  0
 11 12  1  0
 12 13  2  0
 12 14  1  0
 14 15  1  0
 15 16  2  0
 16 17  1  0
 17 18  1  0
 17 19  2  0
 19 20  1  0
 20 21  2  0
 21 11  1  0
 21 15  1  0
M  END
>  <target>  (487) 
-5.233

$$$$

     RDKit          3D

  8  8  0  0  0  0  0  0  0  0999 V2000
    2.7869    0.1304    0.5395 O   0  0  0  0  0  0  0  0  0  0  0  0
    2.0000    0.0619   -0.6421 C   0  0  0  0  0  0  0  0  0  0  0  0
    0.5351    0.0126   -0.3020 C   0  0  0  0  0  0  0  0  0  0  0  0
   -0.1993    1.1968   -0.1519 C   0  0  0  0  0  0  0  0  0  0  0  0
   -1.5505    1.1512    0.1948 C   0  0  0  0  0  0  0  0  0  0  0  0
   -2.1765   -0.0765    0.4031 C   0  0  0  0  0  0  0  0  0  0  0  0
   -1.4520   -1.2595    0.2689 C   0  0  0  0  0  0  0  0  0  0  0  0
   -0.1008   -1.2161   -0.0778 C   0  0  0  0  0  0  0  0  0  0  0  0
  1  2  1  0
  2  3  1  0
  3  4  2  0
  4  5  1  0
  5  6  2  0
  6  7  1  0
  7  8  2  0
  8  3  1  0
M  END
>  <target>  (488) 
-0.4

$$$$

     RDKit          3D

 22 25  0  0  0  0  0  0  0  0999 V2000
    0.3823   -1.4567   -2.9926 O   0  0  0  0  0  0  0  0  0  0  0  0
    1.0523   -1.1541   -2.0099 C   0  0  0  0  0  0  0  0  0  0  0  0
    0.4237   -0.6250   -0.7642 C   0  0  0  0  0  0  0  0  0  0  0  0
   -1.0951   -0.4774   -0.8490 C   0  0  0  0  0  0  0  0  0  0  0  0
   -1.7442   -1.6969   -0.1613 C   0  0  0  0  0  0  0  0  0  0  0  0
   -3.2480   -1.5116   -0.0155 C   0  0  0  0  0  0  0  0  0  0  0  0
   -3.5375   -0.3177    0.8869 C   0  0  0  0  0  0  0  0  0  0  0  0
   -2.7966    0.9245    0.4581 C   0  0  0  0  0  0  0  0  0  0  0  0
   -3.2597    2.1709    0.9082 C   0  0  0  0  0  0  0  0  0  0  0  0
   -2.6185    3.3483    0.5288 C   0  0  0  0  0  0  0  0  0  0  0  0
   -1.5107    3.2948   -0.3092 C   0  0  0  0  0  0  0  0  0  0  0  0
   -1.0318    2.0626   -0.7529 C   0  0  0  0  0  0  0  0  0  0  0  0
   -1.6440    0.8608   -0.3507 C   0  0  0  0  0  0  0  0  0  0  0  0
    1.1955   -0.3597    0.3101 C   0  0  0  0  0  0  0  0  0  0  0  0
    0.7253    0.0987    1.5237 O   0  0  0  0  0  0  0  0  0  0  0  0
    2.6446   -0.5625    0.2668 C   0  0  0  0  0  0  0  0  0  0  0  0
    3.4901   -0.3080    1.3544 C   0  0  0  0  0  0  0  0  0  0  0  0
    4.8705   -0.5129    1.2496 C   0  0  0  0  0  0  0  0  0  0  0  0
    5.4220   -0.9740    0.0547 C   0  0  0  0  0  0  0  0  0  0  0  0
    4.5933   -1.2308   -1.0343 C   0  0  0  0  0  0  0  0  0  0  0  0
    3.2196   -1.0217   -0.9105 C   0  0  0  0  0  0  0  0  0  0  0  0
    2.4302   -1.3013   -2.0340 O   0  0  0  0  0  0  0  0  0  0  0  0
  1  2  2  0
  2  3  1  0
  3  4  1  0
  4  5  1  0
  5  6  1  0
  6  7  1  0
  7  8  1  0
  8  9  2  0
  9 10  1  0
 10 11  2  0
 11 12  1  0
 12 13  2  0
  3 14  2  0
 14 15  1  0
 14 16  1  0
 16 17  2  0
 17 18  1  0
 18 19  2  0
 19 20  1  0
 20 21  2  0
 21 22  1  0
 21 16  1  0
 22  2  1  0
 13  4  1  0
 13  8  1  0
M  END
>  <target>  (489) 
-2.84

$$$$

     RDKit          3D

  8  8  0  0  0  0  0  0  0  0999 V2000
   -2.5429   -0.2117   -0.0354 O   0  0  0  0  0  0  0  0  0  0  0  0
   -1.1837   -0.1111   -0.0147 C   0  0  0  0  0  0  0  0  0  0  0  0
   -0.4519   -1.2798    0.1699 C   0  0  0  0  0  0  0  0  0  0  0  0
    0.9422   -1.2259    0.1981 C   0  0  0  0  0  0  0  0  0  0  0  0
    1.5872    0.0005    0.0408 C   0  0  0  0  0  0  0  0  0  0  0  0
    3.4758    0.0783    0.0783 Br  0  0  0  0  0  0  0  0  0  0  0  0
    0.8504    1.1713   -0.1443 C   0  0  0  0  0  0  0  0  0  0  0  0
   -0.5450    1.1161   -0.1723 C   0  0  0  0  0  0  0  0  0  0  0  0
  1  2  1  0
  2  3  2  0
  3  4  1  0
  4  5  2  0
  5  6  1  0
  5  7  1  0
  7  8  2  0
  8  2  1  0
M  END
>  <target>  (490) 
-1.09

$$$$

     RDKit          3D

  4  3  0  0  0  0  0  0  0  0999 V2000
    1.2290   -0.2855   -0.2811 C   0  0  0  0  0  0  0  0  0  0  0  0
   -0.0063   -0.0522    0.5710 C   0  0  0  0  0  0  0  0  0  0  0  0
   -1.2559    0.1454   -0.2692 C   0  0  0  0  0  0  0  0  0  0  0  0
    0.2752    1.5412    1.6710 Br  0  0  0  0  0  0  0  0  0  0  0  0
  1  2  1  0
  2  3  1  0
  2  4  1  0
M  END
>  <target>  (491) 
-1.59

$$$$

     RDKit          3D

  8  7  0  0  0  0  0  0  0  0999 V2000
    2.5840    0.8704   -0.5916 C   0  0  0  0  0  0  0  0  0  0  0  0
    1.3285    0.0235   -0.8295 C   0  0  0  0  0  0  0  0  0  0  0  0
    1.7564   -1.4186   -1.1202 C   0  0  0  0  0  0  0  0  0  0  0  0
    0.3910    0.1090    0.3978 C   0  0  0  0  0  0  0  0  0  0  0  0
   -1.1394    0.1208    0.1163 C   0  0  0  0  0  0  0  0  0  0  0  0
   -1.5464    1.4061   -0.6275 C   0  0  0  0  0  0  0  0  0  0  0  0
   -1.5944   -1.0980   -0.6979 C   0  0  0  0  0  0  0  0  0  0  0  0
   -1.8734    0.0991    1.4733 C   0  0  0  0  0  0  0  0  0  0  0  0
  1  2  1  0
  2  3  1  0
  2  4  1  0
  4  5  1  0
  5  6  1  0
  5  7  1  0
  5  8  1  0
M  END
>  <target>  (492) 
-4.74

$$$$

     RDKit          3D

 15 15  0  0  0  0  0  0  0  0999 V2000
   -1.7073   -2.9603   -1.1616 O   0  0  0  0  0  0  0  0  0  0  0  0
   -2.0598   -1.8495   -0.7462 N   0  0  0  0  0  0  0  0  0  0  0  0
   -3.2333   -1.4759   -0.6283 O   0  0  0  0  0  0  0  0  0  0  0  0
   -1.0031   -0.9007   -0.3634 C   0  0  0  0  0  0  0  0  0  0  0  0
    0.3424   -1.2800   -0.4799 C   0  0  0  0  0  0  0  0  0  0  0  0
    1.3423   -0.3675   -0.1121 C   0  0  0  0  0  0  0  0  0  0  0  0
    1.0124    0.9091    0.3668 C   0  0  0  0  0  0  0  0  0  0  0  0
   -0.3392    1.2682    0.4755 C   0  0  0  0  0  0  0  0  0  0  0  0
   -1.3548    0.3709    0.1131 C   0  0  0  0  0  0  0  0  0  0  0  0
   -0.6966    2.6042    0.9763 N   0  0  0  0  0  0  0  0  0  0  0  0
    0.2288    3.3651    1.2850 O   0  0  0  0  0  0  0  0  0  0  0  0
   -1.8997    2.8813    1.0568 O   0  0  0  0  0  0  0  0  0  0  0  0
    2.7564   -0.7547   -0.2302 N   0  0  0  0  0  0  0  0  0  0  0  0
    3.6070    0.0791    0.1045 O   0  0  0  0  0  0  0  0  0  0  0  0
    3.0046   -1.8892   -0.6566 O   0  0  0  0  0  0  0  0  0  0  0  0
  1  2  1  0
  2  3  2  0
  2  4  1  0
  4  5  2  0
  5  6  1  0
  6  7  2  0
  7  8  1  0
  8  9  2  0
  8 10  1  0
 10 11  1  0
 10 12  2  0
  6 13  1  0
 13 14  1  0
 13 15  2  0
  9  4  1  0
M  CHG  6   1  -1   2   1  10   1  11  -1  13   1  14  -1
M  END
>  <target>  (493) 
-2.89

$$$$

     RDKit          3D

 22 24  0  0  0  0  0  0  0  0999 V2000
   -3.5342   -1.4301   -0.5763 C   0  0  0  0  0  0  0  0  0  0  0  0
   -2.2608   -1.3434    0.1272 N   0  0  0  0  0  0  0  0  0  0  0  0
   -1.7378   -2.5460    0.6207 C   0  0  0  0  0  0  0  0  0  0  0  0
   -2.2762   -3.6359    0.4050 O   0  0  0  0  0  0  0  0  0  0  0  0
   -0.5123   -2.4557    1.5194 C   0  0  0  0  0  0  0  0  0  0  0  0
    0.6446   -2.0709    0.7185 N   0  0  0  0  0  0  0  0  0  0  0  0
    0.6936   -0.8654    0.2626 C   0  0  0  0  0  0  0  0  0  0  0  0
    1.8576   -0.5085   -0.6093 C   0  0  0  0  0  0  0  0  0  0  0  0
    3.1112   -1.0653   -0.3301 C   0  0  0  0  0  0  0  0  0  0  0  0
    4.2119   -0.7454   -1.1262 C   0  0  0  0  0  0  0  0  0  0  0  0
    4.0617    0.1213   -2.2082 C   0  0  0  0  0  0  0  0  0  0  0  0
    2.8102    0.6626   -2.5028 C   0  0  0  0  0  0  0  0  0  0  0  0
    1.7057    0.3456   -1.7093 C   0  0  0  0  0  0  0  0  0  0  0  0
   -0.3281    0.1817    0.5596 C   0  0  0  0  0  0  0  0  0  0  0  0
    0.1517    1.4533    0.9304 C   0  0  0  0  0  0  0  0  0  0  0  0
   -0.7439    2.5098    1.1145 C   0  0  0  0  0  0  0  0  0  0  0  0
   -2.1126    2.3100    0.9315 C   0  0  0  0  0  0  0  0  0  0  0  0
   -2.5846    1.0382    0.5871 C   0  0  0  0  0  0  0  0  0  0  0  0
   -1.7117   -0.0561    0.4221 C   0  0  0  0  0  0  0  0  0  0  0  0
   -0.2430    3.8381    1.4901 N   0  0  0  0  0  0  0  0  0  0  0  0
    0.9798    3.9718    1.6322 O   0  0  0  0  0  0  0  0  0  0  0  0
   -1.0742    4.7442    1.6390 O   0  0  0  0  0  0  0  0  0  0  0  0
  1  2  1  0
  2  3  1  0
  3  4  2  0
  3  5  1  0
  5  6  1  0
  6  7  2  0
  7  8  1  0
  8  9  2  0
  9 10  1  0
 10 11  2  0
 11 12  1  0
 12 13  2  0
  7 14  1  0
 14 15  2  0
 15 16  1  0
 16 17  2  0
 17 18  1  0
 18 19  2  0
 16 20  1  0
 20 21  1  0
 20 22  2  0
 13  8  1  0
 19  2  1  0
 19 14  1  0
M  CHG  2  20   1  21  -1
M  END
>  <target>  (494) 
-3.7960000000000003

$$$$

     RDKit          3D

  3  2  0  0  0  0  0  0  0  0999 V2000
    1.0993   -0.0382    0.6518 C   0  0  0  0  0  0  0  0  0  0  0  0
   -0.2095    0.5595    0.1640 C   0  0  0  0  0  0  0  0  0  0  0  0
   -0.9412   -0.3840   -0.7756 C   0  0  0  0  0  0  0  0  0  0  0  0
  1  2  1  0
  2  3  1  0
M  END
>  <target>  (495) 
-1.94

$$$$

     RDKit          3D

 15 16  0  0  0  0  0  0  0  0999 V2000
    3.5448   -0.3849   -2.3140 N   0  0  0  0  0  0  0  0  0  0  0  0
    2.7433   -0.2318   -1.1552 C   0  0  0  0  0  0  0  0  0  0  0  0
    1.3667   -0.0714   -1.2517 C   0  0  0  0  0  0  0  0  0  0  0  0
    0.6200    0.1231   -0.0958 C   0  0  0  0  0  0  0  0  0  0  0  0
    1.2117    0.1749    1.1169 N   0  0  0  0  0  0  0  0  0  0  0  0
    2.5523    0.0017    1.2305 C   0  0  0  0  0  0  0  0  0  0  0  0
    3.1311    0.0391    2.5037 N   0  0  0  0  0  0  0  0  0  0  0  0
    3.3543   -0.1893    0.1006 N   0  0  0  0  0  0  0  0  0  0  0  0
    4.6364   -0.3209    0.1953 O   0  0  0  0  0  0  0  0  0  0  0  0
   -0.7751    0.3111   -0.2044 N   0  0  0  0  0  0  0  0  0  0  0  0
   -1.3774    0.8436    1.0315 C   0  0  0  0  0  0  0  0  0  0  0  0
   -2.8388    1.2118    0.7732 C   0  0  0  0  0  0  0  0  0  0  0  0
   -3.6197    0.0189    0.2301 C   0  0  0  0  0  0  0  0  0  0  0  0
   -2.9303   -0.5559   -1.0037 C   0  0  0  0  0  0  0  0  0  0  0  0
   -1.4636   -0.8850   -0.7222 C   0  0  0  0  0  0  0  0  0  0  0  0
  1  2  1  0
  2  3  2  0
  3  4  1  0
  4  5  2  0
  5  6  1  0
  6  7  1  0
  6  8  2  0
  8  9  1  0
  4 10  1  0
 10 11  1  0
 11 12  1  0
 12 13  1  0
 13 14  1  0
 14 15  1  0
  8  2  1  0
 15 10  1  0
M  CHG  2   8   1   9  -1
M  END
>  <target>  (496) 
-1.989

$$$$

     RDKit          3D

 15 17  0  0  0  0  0  0  0  0999 V2000
   -2.7996    1.9059   -0.5341 N   0  0  0  0  0  0  0  0  0  0  0  0
   -2.4222    0.5737   -0.2620 C   0  0  0  0  0  0  0  0  0  0  0  0
   -3.4072   -0.4171   -0.3417 C   0  0  0  0  0  0  0  0  0  0  0  0
   -3.0784   -1.7552   -0.1631 C   0  0  0  0  0  0  0  0  0  0  0  0
   -1.7499   -2.1145    0.0547 C   0  0  0  0  0  0  0  0  0  0  0  0
   -0.7322   -1.1737    0.0709 C   0  0  0  0  0  0  0  0  0  0  0  0
    0.5257   -1.6140    0.2504 N   0  0  0  0  0  0  0  0  0  0  0  0
    1.5404   -0.7350    0.2351 C   0  0  0  0  0  0  0  0  0  0  0  0
    2.8406   -1.1890    0.4157 C   0  0  0  0  0  0  0  0  0  0  0  0
    3.9338   -0.3176    0.4014 C   0  0  0  0  0  0  0  0  0  0  0  0
    3.7304    1.0425    0.2014 C   0  0  0  0  0  0  0  0  0  0  0  0
    2.4357    1.5235    0.0186 C   0  0  0  0  0  0  0  0  0  0  0  0
    1.3398    0.6409    0.0365 C   0  0  0  0  0  0  0  0  0  0  0  0
    0.0241    1.0874   -0.1395 C   0  0  0  0  0  0  0  0  0  0  0  0
   -1.0594    0.1870   -0.1148 C   0  0  0  0  0  0  0  0  0  0  0  0
  1  2  1  0
  2  3  2  0
  3  4  1  0
  4  5  2  0
  5  6  1  0
  6  7  2  0
  7  8  1  0
  8  9  2  0
  9 10  1  0
 10 11  2  0
 11 12  1  0
 12 13  2  0
 13 14  1  0
 14 15  2  0
 13  8  1  0
 15  2  1  0
 15  6  1  0
M  END
>  <target>  (497) 
-4.22

$$$$

     RDKit          3D

 20 24  0  0  0  0  0  0  0  0999 V2000
    4.8692   -1.1083   -0.0217 C   0  0  0  0  0  0  0  0  0  0  0  0
    4.9780    0.2596   -0.2534 C   0  0  0  0  0  0  0  0  0  0  0  0
    3.8302    1.0513   -0.3225 C   0  0  0  0  0  0  0  0  0  0  0  0
    2.5561    0.4865   -0.1608 C   0  0  0  0  0  0  0  0  0  0  0  0
    1.4033    1.2889   -0.2313 C   0  0  0  0  0  0  0  0  0  0  0  0
    0.1695    0.6881   -0.0658 C   0  0  0  0  0  0  0  0  0  0  0  0
   -1.1834    1.2288   -0.0824 C   0  0  0  0  0  0  0  0  0  0  0  0
   -1.6903    2.5023   -0.2655 C   0  0  0  0  0  0  0  0  0  0  0  0
   -3.0851    2.6814   -0.2201 C   0  0  0  0  0  0  0  0  0  0  0  0
   -3.9604    1.5962    0.0061 C   0  0  0  0  0  0  0  0  0  0  0  0
   -3.4483    0.2972    0.1931 C   0  0  0  0  0  0  0  0  0  0  0  0
   -4.1586   -0.8964    0.4283 C   0  0  0  0  0  0  0  0  0  0  0  0
   -3.4665   -2.1167    0.5926 C   0  0  0  0  0  0  0  0  0  0  0  0
   -2.0624   -2.1789    0.5275 C   0  0  0  0  0  0  0  0  0  0  0  0
   -1.3613   -1.0094    0.2967 C   0  0  0  0  0  0  0  0  0  0  0  0
    0.0585   -0.7078    0.1706 C   0  0  0  0  0  0  0  0  0  0  0  0
    1.1807   -1.5116    0.2431 C   0  0  0  0  0  0  0  0  0  0  0  0
    2.4445   -0.9175    0.0771 C   0  0  0  0  0  0  0  0  0  0  0  0
    3.6121   -1.6927    0.1423 C   0  0  0  0  0  0  0  0  0  0  0  0
   -2.0617    0.1777    0.1383 C   0  0  0  0  0  0  0  0  0  0  0  0
  1  2  2  0
  2  3  1  0
  3  4  2  0
  4  5  1  0
  5  6  2  0
  6  7  1  0
  7  8  2  0
  8  9  1  0
  9 10  2  0
 10 11  1  0
 11 12  1  0
 12 13  2  0
 13 14  1  0
 14 15  2  0
 15 16  1  0
 16 17  2  0
 17 18  1  0
 18 19  2  0
 15 20  1  0
 19  1  1  0
 18  4  1  0
 16  6  1  0
 20  7  1  0
 20 11  2  0
M  END
>  <target>  (498) 
-8.49

$$$$

     RDKit          3D

 20 21  0  0  0  0  0  0  0  0999 V2000
    0.0669    1.4367    1.6700 O   0  0  0  0  0  0  0  0  0  0  0  0
   -0.0524    1.1176    0.2479 C   0  0  0  0  0  0  0  0  0  0  0  0
    1.2476    0.3709   -0.1563 C   0  0  0  0  0  0  0  0  0  0  0  0
    2.4248    0.4875    0.6092 C   0  0  0  0  0  0  0  0  0  0  0  0
    3.5981   -0.1771    0.2395 C   0  0  0  0  0  0  0  0  0  0  0  0
    3.6136   -0.9721   -0.9012 C   0  0  0  0  0  0  0  0  0  0  0  0
    5.0557   -1.7913   -1.3561 Cl  0  0  0  0  0  0  0  0  0  0  0  0
    2.4656   -1.1088   -1.6749 C   0  0  0  0  0  0  0  0  0  0  0  0
    1.2921   -0.4436   -1.3060 C   0  0  0  0  0  0  0  0  0  0  0  0
   -1.2556    0.1331    0.2162 C   0  0  0  0  0  0  0  0  0  0  0  0
   -1.2371   -0.9740    1.1001 C   0  0  0  0  0  0  0  0  0  0  0  0
   -2.2729   -1.9117    1.1299 C   0  0  0  0  0  0  0  0  0  0  0  0
   -3.3546   -1.7655    0.2726 C   0  0  0  0  0  0  0  0  0  0  0  0
   -4.6347   -2.9125    0.2998 Cl  0  0  0  0  0  0  0  0  0  0  0  0
   -3.4028   -0.6917   -0.6099 C   0  0  0  0  0  0  0  0  0  0  0  0
   -2.3628    0.2480   -0.6399 C   0  0  0  0  0  0  0  0  0  0  0  0
   -0.1765    2.5095   -0.5395 C   0  0  0  0  0  0  0  0  0  0  0  0
   -0.2943    2.3565   -2.3330 Cl  0  0  0  0  0  0  0  0  0  0  0  0
    1.2418    3.6065   -0.2165 Cl  0  0  0  0  0  0  0  0  0  0  0  0
   -1.6265    3.4488    0.0361 Cl  0  0  0  0  0  0  0  0  0  0  0  0
  1  2  1  0
  2  3  1  0
  3  4  2  0
  4  5  1  0
  5  6  2  0
  6  7  1  0
  6  8  1  0
  8  9  2  0
  2 10  1  0
 10 11  2  0
 11 12  1  0
 12 13  2  0
 13 14  1  0
 13 15  1  0
 15 16  2  0
  2 17  1  0
 17 18  1  0
 17 19  1  0
 17 20  1  0
  9  3  1  0
 16 10  1  0
M  END
>  <target>  (499) 
-5.666

$$$$

     RDKit          3D

 12 14  0  0  0  0  0  0  0  0999 V2000
   -1.4890   -1.7685   -0.0731 C   0  0  0  0  0  0  0  0  0  0  0  0
   -2.2728   -0.4294   -0.0119 C   0  0  0  0  0  0  0  0  0  0  0  0
   -1.1907    0.6086    0.0304 C   0  0  0  0  0  0  0  0  0  0  0  0
   -1.2927    1.9883    0.0913 C   0  0  0  0  0  0  0  0  0  0  0  0
   -0.1135    2.7515    0.1212 C   0  0  0  0  0  0  0  0  0  0  0  0
    1.1541    2.1361    0.0903 C   0  0  0  0  0  0  0  0  0  0  0  0
    1.2560    0.7338    0.0284 C   0  0  0  0  0  0  0  0  0  0  0  0
    2.4292   -0.0425   -0.0093 C   0  0  0  0  0  0  0  0  0  0  0  0
    2.3445   -1.4480   -0.0708 C   0  0  0  0  0  0  0  0  0  0  0  0
    1.1005   -2.1005   -0.0956 C   0  0  0  0  0  0  0  0  0  0  0  0
   -0.0530   -1.3353   -0.0585 C   0  0  0  0  0  0  0  0  0  0  0  0
    0.0512    0.0299    0.0012 C   0  0  0  0  0  0  0  0  0  0  0  0
  1  2  1  0
  2  3  1  0
  3  4  2  0
  4  5  1  0
  5  6  2  0
  6  7  1  0
  7  8  2  0
  8  9  1  0
  9 10  2  0
 10 11  1  0
 11 12  2  0
 11  1  1  0
 12  3  1  0
 12  7  1  0
M  END
>  <target>  (500) 
-4.63

$$$$

     RDKit          3D

 23 24  0  0  0  0  0  0  0  0999 V2000
    2.4232    2.8809    0.0174 C   0  0  0  0  0  0  0  0  0  0  0  0
    2.2154    1.9666   -1.1726 C   0  0  0  0  0  0  0  0  0  0  0  0
    2.6011    0.6523   -0.7999 O   0  0  0  0  0  0  0  0  0  0  0  0
    2.3103   -0.5811   -1.8162 P   0  0  0  0  0  0  0  0  0  0  0  0
    3.2457   -0.4203   -3.5190 S   0  0  0  0  0  0  0  0  0  0  0  0
    2.8894   -1.7961   -0.9025 O   0  0  0  0  0  0  0  0  0  0  0  0
    4.2645   -1.8125   -0.5508 C   0  0  0  0  0  0  0  0  0  0  0  0
    4.4279   -2.6671    0.6897 C   0  0  0  0  0  0  0  0  0  0  0  0
    0.2326   -0.8918   -1.8482 S   0  0  0  0  0  0  0  0  0  0  0  0
   -0.2035   -0.9136   -0.0755 C   0  0  0  0  0  0  0  0  0  0  0  0
   -0.0440   -2.3219    0.5172 C   0  0  0  0  0  0  0  0  0  0  0  0
   -0.3377   -2.3065    2.2842 Cl  0  0  0  0  0  0  0  0  0  0  0  0
   -1.5341   -0.3398    0.0875 N   0  0  0  0  0  0  0  0  0  0  0  0
   -1.7360    0.9873    0.3582 C   0  0  0  0  0  0  0  0  0  0  0  0
   -0.9122    1.8640    0.5389 O   0  0  0  0  0  0  0  0  0  0  0  0
   -3.1806    1.2028    0.3613 C   0  0  0  0  0  0  0  0  0  0  0  0
   -3.9181    2.3455    0.6022 C   0  0  0  0  0  0  0  0  0  0  0  0
   -5.3099    2.2368    0.5151 C   0  0  0  0  0  0  0  0  0  0  0  0
   -5.9197    1.0071    0.1895 C   0  0  0  0  0  0  0  0  0  0  0  0
   -5.1499   -0.1349   -0.0521 C   0  0  0  0  0  0  0  0  0  0  0  0
   -3.7790   -0.0020    0.0443 C   0  0  0  0  0  0  0  0  0  0  0  0
   -2.7164   -0.9841   -0.1567 C   0  0  0  0  0  0  0  0  0  0  0  0
   -2.9163   -2.1347   -0.4940 O   0  0  0  0  0  0  0  0  0  0  0  0
  1  2  1  0
  2  3  1  0
  3  4  1  0
  4  5  2  0
  4  6  1  0
  6  7  1  0
  7  8  1  0
  4  9  1  0
  9 10  1  0
 10 11  1  0
 11 12  1  0
 10 13  1  0
 13 14  1  0
 14 15  2  0
 14 16  1  0
 16 17  2  0
 17 18  1  0
 18 19  2  0
 19 20  1  0
 20 21  2  0
 21 22  1  0
 22 23  2  0
 21 16  1  0
 22 13  1  0
M  END
>  <target>  (501) 
-6.34

$$$$

     RDKit          3D

  8  8  0  0  0  0  0  0  0  0999 V2000
    3.0821    1.1225   -0.0169 Br  0  0  0  0  0  0  0  0  0  0  0  0
    1.3059    0.4756   -0.0072 C   0  0  0  0  0  0  0  0  0  0  0  0
    1.0707   -0.8993   -0.0199 C   0  0  0  0  0  0  0  0  0  0  0  0
   -0.2417   -1.3773   -0.0127 C   0  0  0  0  0  0  0  0  0  0  0  0
   -1.3059   -0.4756    0.0072 C   0  0  0  0  0  0  0  0  0  0  0  0
   -3.0821   -1.1225    0.0169 Br  0  0  0  0  0  0  0  0  0  0  0  0
   -1.0707    0.8993    0.0199 C   0  0  0  0  0  0  0  0  0  0  0  0
    0.2417    1.3773    0.0127 C   0  0  0  0  0  0  0  0  0  0  0  0
  1  2  1  0
  2  3  2  0
  3  4  1  0
  4  5  2  0
  5  6  1  0
  5  7  1  0
  7  8  2  0
  8  2  1  0
M  END
>  <target>  (502) 
-4.07

$$$$

     RDKit          3D

 16 17  0  0  0  0  0  0  0  0999 V2000
    3.9262    0.5776    0.4708 C   0  0  0  0  0  0  0  0  0  0  0  0
    2.6179    0.4205   -0.1081 N   0  0  0  0  0  0  0  0  0  0  0  0
    2.3508    0.3330   -1.4313 C   0  0  0  0  0  0  0  0  0  0  0  0
    3.1517    0.3951   -2.3508 O   0  0  0  0  0  0  0  0  0  0  0  0
    1.0022    0.1493   -1.6086 O   0  0  0  0  0  0  0  0  0  0  0  0
    0.4307    0.0986   -0.3090 N   0  0  0  0  0  0  0  0  0  0  0  0
   -0.9443   -0.1203   -0.1649 C   0  0  0  0  0  0  0  0  0  0  0  0
   -1.5402   -0.1984    1.0989 C   0  0  0  0  0  0  0  0  0  0  0  0
   -2.9167   -0.4168    1.2283 C   0  0  0  0  0  0  0  0  0  0  0  0
   -3.7172   -0.5596    0.0942 C   0  0  0  0  0  0  0  0  0  0  0  0
   -5.4069   -0.8266    0.3275 Cl  0  0  0  0  0  0  0  0  0  0  0  0
   -3.1346   -0.4827   -1.1733 C   0  0  0  0  0  0  0  0  0  0  0  0
   -4.0564   -0.6484   -2.6260 Cl  0  0  0  0  0  0  0  0  0  0  0  0
   -1.7564   -0.2641   -1.2992 C   0  0  0  0  0  0  0  0  0  0  0  0
    1.4643    0.2550    0.6052 C   0  0  0  0  0  0  0  0  0  0  0  0
    1.3919    0.2442    1.8263 O   0  0  0  0  0  0  0  0  0  0  0  0
  1  2  1  0
  2  3  1  0
  3  4  2  0
  3  5  1  0
  5  6  1  0
  6  7  1  0
  7  8  2  0
  8  9  1  0
  9 10  2  0
 10 11  1  0
 10 12  1  0
 12 13  1  0
 12 14  2  0
  6 15  1  0
 15 16  2  0
 14  7  1  0
 15  2  1  0
M  END
>  <target>  (503) 
-2.82

$$$$

     RDKit          3D

 13 14  0  0  0  0  0  0  0  0999 V2000
   -4.6309   -0.5404   -0.4002 O   0  0  0  0  0  0  0  0  0  0  0  0
   -3.2816   -0.3692   -0.3098 C   0  0  0  0  0  0  0  0  0  0  0  0
   -2.4766   -1.0996   -1.1732 C   0  0  0  0  0  0  0  0  0  0  0  0
   -1.0881   -0.9537   -1.1152 C   0  0  0  0  0  0  0  0  0  0  0  0
   -0.4905   -0.0775   -0.1932 C   0  0  0  0  0  0  0  0  0  0  0  0
   -1.3316    0.6482    0.6690 C   0  0  0  0  0  0  0  0  0  0  0  0
   -2.7218    0.5058    0.6132 C   0  0  0  0  0  0  0  0  0  0  0  0
    0.9724    0.0769   -0.1323 C   0  0  0  0  0  0  0  0  0  0  0  0
    1.6695   -0.0972    1.0749 C   0  0  0  0  0  0  0  0  0  0  0  0
    3.0583    0.0492    1.1332 C   0  0  0  0  0  0  0  0  0  0  0  0
    3.7739    0.3738   -0.0163 C   0  0  0  0  0  0  0  0  0  0  0  0
    3.1027    0.5512   -1.2233 C   0  0  0  0  0  0  0  0  0  0  0  0
    1.7141    0.4032   -1.2801 C   0  0  0  0  0  0  0  0  0  0  0  0
  1  2  1  0
  2  3  2  0
  3  4  1  0
  4  5  2  0
  5  6  1  0
  6  7  2  0
  5  8  1  0
  8  9  2  0
  9 10  1  0
 10 11  2  0
 11 12  1  0
 12 13  2  0
  7  2  1  0
 13  8  1  0
M  END
>  <target>  (504) 
-3.48

$$$$

     RDKit          3D

 16 17  0  0  0  0  0  0  0  0999 V2000
   -1.1119   -1.5786   -1.9045 C   0  0  0  0  0  0  0  0  0  0  0  0
   -1.9476   -0.7082   -1.0091 C   0  0  0  0  0  0  0  0  0  0  0  0
   -1.5102    0.3848   -0.3509 C   0  0  0  0  0  0  0  0  0  0  0  0
   -2.4099    1.2425    0.4883 C   0  0  0  0  0  0  0  0  0  0  0  0
   -3.7341    0.5413    0.7628 C   0  0  0  0  0  0  0  0  0  0  0  0
   -4.2083   -0.1490   -0.5045 C   0  0  0  0  0  0  0  0  0  0  0  0
   -3.2672   -1.1313   -0.9531 O   0  0  0  0  0  0  0  0  0  0  0  0
   -0.0912    0.8390   -0.4011 C   0  0  0  0  0  0  0  0  0  0  0  0
    0.1692    1.9505   -0.8410 O   0  0  0  0  0  0  0  0  0  0  0  0
    0.7725   -0.0863    0.1450 N   0  0  0  0  0  0  0  0  0  0  0  0
    2.1730    0.0140    0.2653 C   0  0  0  0  0  0  0  0  0  0  0  0
    2.9187    1.1019   -0.1916 C   0  0  0  0  0  0  0  0  0  0  0  0
    4.3087    1.1230   -0.0365 C   0  0  0  0  0  0  0  0  0  0  0  0
    4.9638    0.0569    0.5751 C   0  0  0  0  0  0  0  0  0  0  0  0
    4.2295   -1.0335    1.0328 C   0  0  0  0  0  0  0  0  0  0  0  0
    2.8408   -1.0546    0.8780 C   0  0  0  0  0  0  0  0  0  0  0  0
  1  2  1  0
  2  3  2  0
  3  4  1  0
  4  5  1  0
  5  6  1  0
  6  7  1  0
  3  8  1  0
  8  9  2  0
  8 10  1  0
 10 11  1  0
 11 12  2  0
 12 13  1  0
 13 14  2  0
 14 15  1  0
 15 16  2  0
  7  2  1  0
 16 11  1  0
M  END
>  <target>  (505) 
-2.56

$$$$

     RDKit          3D

  5  4  0  0  0  0  0  0  0  0999 V2000
    1.4562    0.7065   -0.7153 C   0  0  0  0  0  0  0  0  0  0  0  0
    0.9066   -0.2825    0.2979 C   0  0  0  0  0  0  0  0  0  0  0  0
    0.0726   -1.2532   -0.3348 O   0  0  0  0  0  0  0  0  0  0  0  0
   -1.2436   -0.9643   -0.5452 C   0  0  0  0  0  0  0  0  0  0  0  0
   -1.9312    0.1441   -0.2496 C   0  0  0  0  0  0  0  0  0  0  0  0
  1  2  1  0
  2  3  1  0
  3  4  1  0
  4  5  2  0
M  END
>  <target>  (506) 
-0.85

$$$$

     RDKit          3D

  4  3  0  0  0  0  0  0  0  0999 V2000
   -1.1696    0.4711    0.3640 C   0  0  0  0  0  0  0  0  0  0  0  0
   -0.2903   -0.6319   -0.2003 C   0  0  0  0  0  0  0  0  0  0  0  0
    1.1176   -0.2156   -0.2568 C   0  0  0  0  0  0  0  0  0  0  0  0
    2.2693    0.1213   -0.3045 C   0  0  0  0  0  0  0  0  0  0  0  0
  1  2  1  0
  2  3  1  0
  3  4  3  0
M  END
>  <target>  (507) 
-1.24

$$$$

     RDKit          3D

 12 13  0  0  0  0  0  0  0  0999 V2000
   -3.1713   -0.1550    0.0796 C   0  0  0  0  0  0  0  0  0  0  0  0
   -1.8760   -0.4848    0.5670 O   0  0  0  0  0  0  0  0  0  0  0  0
   -0.8394    0.0922   -0.1552 C   0  0  0  0  0  0  0  0  0  0  0  0
   -1.1537    0.8783   -1.2072 N   0  0  0  0  0  0  0  0  0  0  0  0
   -0.1125    1.3979   -1.8533 C   0  0  0  0  0  0  0  0  0  0  0  0
    1.1704    1.2044   -1.5466 N   0  0  0  0  0  0  0  0  0  0  0  0
    1.4402    0.4232   -0.5028 C   0  0  0  0  0  0  0  0  0  0  0  0
    2.7314    0.2368   -0.2052 N   0  0  0  0  0  0  0  0  0  0  0  0
    3.0340   -0.5521    0.8502 C   0  0  0  0  0  0  0  0  0  0  0  0
    2.0663   -1.1596    1.6153 C   0  0  0  0  0  0  0  0  0  0  0  0
    0.7589   -0.9964    1.3478 N   0  0  0  0  0  0  0  0  0  0  0  0
    0.4509   -0.1962    0.2773 C   0  0  0  0  0  0  0  0  0  0  0  0
  1  2  1  0
  2  3  1  0
  3  4  2  0
  4  5  1  0
  5  6  2  0
  6  7  1  0
  7  8  2  0
  8  9  1  0
  9 10  2  0
 10 11  1  0
 11 12  2  0
 12  3  1  0
 12  7  1  0
M  END
>  <target>  (508) 
-1.11

$$$$

     RDKit          3D

  9  8  0  0  0  0  0  0  0  0999 V2000
    3.6587    0.6525   -0.4901 C   0  0  0  0  0  0  0  0  0  0  0  0
    2.5405   -0.1948    0.0958 C   0  0  0  0  0  0  0  0  0  0  0  0
    1.1964    0.1157   -0.5658 C   0  0  0  0  0  0  0  0  0  0  0  0
    0.0732   -0.7391    0.0359 C   0  0  0  0  0  0  0  0  0  0  0  0
   -1.3045   -0.5469   -0.6366 C   0  0  0  0  0  0  0  0  0  0  0  0
   -2.3270   -1.4942    0.0051 C   0  0  0  0  0  0  0  0  0  0  0  0
   -1.1930   -0.9222   -2.0172 O   0  0  0  0  0  0  0  0  0  0  0  0
   -1.8161    0.9080   -0.6260 C   0  0  0  0  0  0  0  0  0  0  0  0
   -1.9539    1.5448    0.7491 C   0  0  0  0  0  0  0  0  0  0  0  0
  1  2  1  0
  2  3  1  0
  3  4  1  0
  4  5  1  0
  5  6  1  0
  5  7  1  0
  5  8  1  0
  8  9  1  0
M  END
>  <target>  (509) 
-1.6

$$$$

     RDKit          3D

  8  8  0  0  0  0  0  0  0  0999 V2000
   -3.0631   -0.5444   -0.0124 Cl  0  0  0  0  0  0  0  0  0  0  0  0
   -1.3695   -0.2434   -0.0055 C   0  0  0  0  0  0  0  0  0  0  0  0
   -0.8998    1.0699    0.0192 C   0  0  0  0  0  0  0  0  0  0  0  0
    0.4758    1.3144    0.0248 C   0  0  0  0  0  0  0  0  0  0  0  0
    1.3695    0.2434    0.0055 C   0  0  0  0  0  0  0  0  0  0  0  0
    3.0631    0.5444    0.0124 Cl  0  0  0  0  0  0  0  0  0  0  0  0
    0.8998   -1.0699   -0.0192 C   0  0  0  0  0  0  0  0  0  0  0  0
   -0.4758   -1.3144   -0.0248 C   0  0  0  0  0  0  0  0  0  0  0  0
  1  2  1  0
  2  3  2  0
  3  4  1  0
  4  5  2  0
  5  6  1  0
  5  7  1  0
  7  8  2  0
  8  2  1  0
M  END
>  <target>  (510) 
-3.27

$$$$

     RDKit          3D

 24 26  0  0  0  0  0  0  0  0999 V2000
    2.1913   -1.6759    1.9687 O   0  0  0  0  0  0  0  0  0  0  0  0
    1.3869   -1.2947    1.1351 C   0  0  0  0  0  0  0  0  0  0  0  0
    1.6134   -1.0454   -0.1752 N   0  0  0  0  0  0  0  0  0  0  0  0
    2.8970   -1.1493   -0.8104 C   0  0  0  0  0  0  0  0  0  0  0  0
    3.5528    0.1111   -0.6658 O   0  0  0  0  0  0  0  0  0  0  0  0
    4.7958    0.1300   -1.2114 C   0  0  0  0  0  0  0  0  0  0  0  0
    5.3348   -0.8090   -1.7791 O   0  0  0  0  0  0  0  0  0  0  0  0
    5.4208    1.4776   -1.0195 C   0  0  0  0  0  0  0  0  0  0  0  0
    0.5024   -0.5048   -0.7586 C   0  0  0  0  0  0  0  0  0  0  0  0
    0.4374   -0.1228   -1.9230 O   0  0  0  0  0  0  0  0  0  0  0  0
   -0.6334   -0.4122    0.3096 C   0  0  0  0  0  0  0  0  0  0  0  0
    0.0727   -1.0300    1.4190 N   0  0  0  0  0  0  0  0  0  0  0  0
   -1.8503   -1.2312   -0.1447 C   0  0  0  0  0  0  0  0  0  0  0  0
   -2.6222   -0.7848   -1.2355 C   0  0  0  0  0  0  0  0  0  0  0  0
   -3.7435   -1.4969   -1.6664 C   0  0  0  0  0  0  0  0  0  0  0  0
   -4.1162   -2.6699   -1.0172 C   0  0  0  0  0  0  0  0  0  0  0  0
   -3.3656   -3.1340    0.0595 C   0  0  0  0  0  0  0  0  0  0  0  0
   -2.2415   -2.4240    0.4916 C   0  0  0  0  0  0  0  0  0  0  0  0
   -0.9949    1.0242    0.7243 C   0  0  0  0  0  0  0  0  0  0  0  0
   -1.9977    1.2347    1.6947 C   0  0  0  0  0  0  0  0  0  0  0  0
   -2.3386    2.5215    2.1162 C   0  0  0  0  0  0  0  0  0  0  0  0
   -1.6824    3.6252    1.5815 C   0  0  0  0  0  0  0  0  0  0  0  0
   -0.6875    3.4428    0.6256 C   0  0  0  0  0  0  0  0  0  0  0  0
   -0.3445    2.1558    0.2012 C   0  0  0  0  0  0  0  0  0  0  0  0
  1  2  2  0
  2  3  1  0
  3  4  1  0
  4  5  1  0
  5  6  1  0
  6  7  2  0
  6  8  1  0
  3  9  1  0
  9 10  2  0
  9 11  1  0
 11 12  1  0
 11 13  1  0
 13 14  2  0
 14 15  1  0
 15 16  2  0
 16 17  1  0
 17 18  2  0
 11 19  1  0
 19 20  2  0
 20 21  1  0
 21 22  2  0
 22 23  1  0
 23 24  2  0
 12  2  1  0
 18 13  1  0
 24 19  1  0
M  END
>  <target>  (511) 
-4.47

$$$$

     RDKit          3D

 23 23  0  0  0  0  0  0  0  0999 V2000
    1.9324    2.4907    2.8911 C   0  0  0  0  0  0  0  0  0  0  0  0
    1.4343    0.8450    3.4498 S   0  0  0  0  0  0  0  0  0  0  0  0
    1.2839    0.0120    1.8364 C   0  0  0  0  0  0  0  0  0  0  0  0
    2.9055   -0.2926    1.0443 S   0  0  0  0  0  0  0  0  0  0  0  0
    3.5009   -1.5554    1.5951 O   0  0  0  0  0  0  0  0  0  0  0  0
    2.2855   -0.6614   -0.6265 C   0  0  0  0  0  0  0  0  0  0  0  0
    1.6461   -2.0562   -0.7489 C   0  0  0  0  0  0  0  0  0  0  0  0
    2.6248   -3.0705   -1.3589 C   0  0  0  0  0  0  0  0  0  0  0  0
    2.9159   -2.7082   -2.7130 O   0  0  0  0  0  0  0  0  0  0  0  0
    0.4385   -1.9723   -1.5838 N   0  0  0  0  0  0  0  0  0  0  0  0
   -0.7214   -1.4732   -1.0544 C   0  0  0  0  0  0  0  0  0  0  0  0
   -0.8743   -1.2752    0.1435 O   0  0  0  0  0  0  0  0  0  0  0  0
   -1.7414   -1.1110   -2.0676 C   0  0  0  0  0  0  0  0  0  0  0  0
   -2.6585   -0.1502   -1.8529 C   0  0  0  0  0  0  0  0  0  0  0  0
   -2.7681    0.6648   -0.6516 C   0  0  0  0  0  0  0  0  0  0  0  0
   -1.8961    1.6290   -0.2869 C   0  0  0  0  0  0  0  0  0  0  0  0
   -0.7354    2.1131   -1.1106 C   0  0  0  0  0  0  0  0  0  0  0  0
   -2.0167    2.2427    0.9396 N   0  0  0  0  0  0  0  0  0  0  0  0
   -2.9812    1.9512    1.8594 C   0  0  0  0  0  0  0  0  0  0  0  0
   -3.0562    2.5475    2.9290 O   0  0  0  0  0  0  0  0  0  0  0  0
   -3.8694    0.9857    1.5002 N   0  0  0  0  0  0  0  0  0  0  0  0
   -3.9055    0.3706    0.2819 C   0  0  0  0  0  0  0  0  0  0  0  0
   -4.8370   -0.3629   -0.0412 O   0  0  0  0  0  0  0  0  0  0  0  0
  1  2  1  0
  2  3  1  0
  3  4  1  0
  4  5  2  0
  4  6  1  0
  6  7  1  0
  7  8  1  0
  8  9  1  0
  7 10  1  0
 10 11  1  0
 11 12  2  0
 11 13  1  0
 13 14  2  3
 14 15  1  0
 15 16  2  0
 16 17  1  0
 16 18  1  0
 18 19  1  0
 19 20  2  0
 19 21  1  0
 21 22  1  0
 22 23  2  0
 22 15  1  0
M  END
>  <target>  (512) 
-1.9809999999999999

$$$$

     RDKit          3D

 10 11  0  0  0  0  0  0  0  0999 V2000
    2.6070   -0.8661    0.0767 C   0  0  0  0  0  0  0  0  0  0  0  0
    1.4722    0.0880   -0.0142 C   0  0  0  0  0  0  0  0  0  0  0  0
    1.5572    1.4594   -0.1511 C   0  0  0  0  0  0  0  0  0  0  0  0
    0.2867    1.9668   -0.1970 N   0  0  0  0  0  0  0  0  0  0  0  0
   -0.6357    0.9526   -0.0926 C   0  0  0  0  0  0  0  0  0  0  0  0
   -2.0350    1.0010   -0.0923 C   0  0  0  0  0  0  0  0  0  0  0  0
   -2.7251   -0.2086    0.0308 C   0  0  0  0  0  0  0  0  0  0  0  0
   -2.0408   -1.4159    0.1485 C   0  0  0  0  0  0  0  0  0  0  0  0
   -0.6413   -1.4458    0.1464 C   0  0  0  0  0  0  0  0  0  0  0  0
    0.0791   -0.2398    0.0236 C   0  0  0  0  0  0  0  0  0  0  0  0
  1  2  1  0
  2  3  2  0
  3  4  1  0
  4  5  1  0
  5  6  2  0
  6  7  1  0
  7  8  2  0
  8  9  1  0
  9 10  2  0
 10  2  1  0
 10  5  1  0
M  END
>  <target>  (513) 
-2.42

$$$$

     RDKit          3D

 12 13  0  0  0  0  0  0  0  0999 V2000
    3.3727    0.5680    0.4604 C   0  0  0  0  0  0  0  0  0  0  0  0
    2.8272    0.1075   -0.7689 O   0  0  0  0  0  0  0  0  0  0  0  0
    1.4597   -0.0505   -0.7289 C   0  0  0  0  0  0  0  0  0  0  0  0
    0.9169   -0.4825   -1.8701 N   0  0  0  0  0  0  0  0  0  0  0  0
   -0.4212   -0.6434   -1.8511 C   0  0  0  0  0  0  0  0  0  0  0  0
   -1.2289   -0.3980   -0.7664 C   0  0  0  0  0  0  0  0  0  0  0  0
   -2.5769   -0.5765   -0.7983 N   0  0  0  0  0  0  0  0  0  0  0  0
   -3.2280   -0.2927    0.3455 C   0  0  0  0  0  0  0  0  0  0  0  0
   -2.5578    0.1485    1.4656 C   0  0  0  0  0  0  0  0  0  0  0  0
   -1.2159    0.3226    1.4863 N   0  0  0  0  0  0  0  0  0  0  0  0
   -0.5323    0.0511    0.3683 C   0  0  0  0  0  0  0  0  0  0  0  0
    0.7866    0.2236    0.3929 N   0  0  0  0  0  0  0  0  0  0  0  0
  1  2  1  0
  2  3  1  0
  3  4  2  0
  4  5  1  0
  5  6  2  0
  6  7  1  0
  7  8  2  0
  8  9  1  0
  9 10  2  0
 10 11  1  0
 11 12  2  0
 11  6  1  0
 12  3  1  0
M  END
>  <target>  (514) 
-1.11

$$$$

     RDKit          3D

 16 17  0  0  0  0  0  0  0  0999 V2000
    4.1115   -1.1507   -1.0102 C   0  0  0  0  0  0  0  0  0  0  0  0
    3.2234   -0.4448   -0.1291 N   0  0  0  0  0  0  0  0  0  0  0  0
    2.1295    0.2291   -0.5980 C   0  0  0  0  0  0  0  0  0  0  0  0
    1.8727    0.4017   -1.7815 O   0  0  0  0  0  0  0  0  0  0  0  0
    1.3642    0.6505    0.4757 O   0  0  0  0  0  0  0  0  0  0  0  0
    0.1891    1.3248    0.1167 C   0  0  0  0  0  0  0  0  0  0  0  0
    0.2218    2.7210    0.1854 C   0  0  0  0  0  0  0  0  0  0  0  0
   -0.9245    3.4508   -0.1144 C   0  0  0  0  0  0  0  0  0  0  0  0
   -2.0950    2.7844   -0.4700 C   0  0  0  0  0  0  0  0  0  0  0  0
   -2.1233    1.3864   -0.5195 C   0  0  0  0  0  0  0  0  0  0  0  0
   -0.9831    0.6229   -0.2117 C   0  0  0  0  0  0  0  0  0  0  0  0
   -1.0069   -0.8904   -0.2819 C   0  0  0  0  0  0  0  0  0  0  0  0
   -2.3389   -1.3984   -0.4928 O   0  0  0  0  0  0  0  0  0  0  0  0
   -2.4958   -2.4334    0.4735 C   0  0  0  0  0  0  0  0  0  0  0  0
   -1.6063   -1.9976    1.6020 C   0  0  0  0  0  0  0  0  0  0  0  0
   -0.4718   -1.4645    0.9257 O   0  0  0  0  0  0  0  0  0  0  0  0
  1  2  1  0
  2  3  1  0
  3  4  2  0
  3  5  1  0
  5  6  1  0
  6  7  2  0
  7  8  1  0
  8  9  2  0
  9 10  1  0
 10 11  2  0
 11 12  1  0
 12 13  1  0
 13 14  1  0
 14 15  1  0
 15 16  1  0
 11  6  1  0
 16 12  1  0
M  END
>  <target>  (515) 
-1.57

$$$$

     RDKit          3D

 13 13  0  0  0  0  0  0  0  0999 V2000
   -3.0158   -0.8583   -0.4562 C   0  0  0  0  0  0  0  0  0  0  0  0
   -1.9176   -0.1267    0.1344 N   0  0  0  0  0  0  0  0  0  0  0  0
   -0.7167   -0.7503    0.4183 C   0  0  0  0  0  0  0  0  0  0  0  0
   -0.5256   -1.9431    0.1889 O   0  0  0  0  0  0  0  0  0  0  0  0
    0.2375    0.0627    0.9707 N   0  0  0  0  0  0  0  0  0  0  0  0
    1.5897   -0.3812    1.2291 C   0  0  0  0  0  0  0  0  0  0  0  0
    2.4705   -0.3593   -0.0298 C   0  0  0  0  0  0  0  0  0  0  0  0
    3.8295   -0.9920    0.2717 C   0  0  0  0  0  0  0  0  0  0  0  0
    2.6624    1.0641   -0.5581 C   0  0  0  0  0  0  0  0  0  0  0  0
   -2.2096    1.2476    0.1280 C   0  0  0  0  0  0  0  0  0  0  0  0
   -1.4959    2.1632    0.5064 O   0  0  0  0  0  0  0  0  0  0  0  0
   -3.5002    1.4121   -0.3609 N   0  0  0  0  0  0  0  0  0  0  0  0
   -4.1593    0.1411   -0.4652 C   0  0  0  0  0  0  0  0  0  0  0  0
  1  2  1  0
  2  3  1  0
  3  4  2  0
  3  5  1  0
  5  6  1  0
  6  7  1  0
  7  8  1  0
  7  9  1  0
  2 10  1  0
 10 11  2  0
 10 12  1  0
 12 13  1  0
 13  1  1  0
M  END
>  <target>  (516) 
-2.15

$$$$

     RDKit          3D

  3  2  0  0  0  0  0  0  0  0999 V2000
   -0.4862   -0.0021   -0.0125 C   0  0  0  0  0  0  0  0  0  0  0  0
    0.9753    0.0042    0.0250 C   0  0  0  0  0  0  0  0  0  0  0  0
    2.1351    0.0093    0.0548 N   0  0  0  0  0  0  0  0  0  0  0  0
  1  2  1  0
  2  3  3  0
M  END
>  <target>  (517) 
0.26

$$$$

     RDKit          3D

 22 23  0  0  0  0  0  0  0  0999 V2000
    7.7243   -0.8704    0.6486 C   0  0  0  0  0  0  0  0  0  0  0  0
    6.9246   -1.2649   -0.5790 C   0  0  0  0  0  0  0  0  0  0  0  0
    5.5338   -0.9747   -0.3792 O   0  0  0  0  0  0  0  0  0  0  0  0
    5.1443    0.2835   -0.6951 C   0  0  0  0  0  0  0  0  0  0  0  0
    5.8675    1.1665   -1.1292 O   0  0  0  0  0  0  0  0  0  0  0  0
    3.8093    0.4046   -0.4614 N   0  0  0  0  0  0  0  0  0  0  0  0
    3.0512    1.5496   -0.9227 C   0  0  0  0  0  0  0  0  0  0  0  0
    1.7266    1.6910   -0.1747 C   0  0  0  0  0  0  0  0  0  0  0  0
    0.9120    0.5553   -0.4834 O   0  0  0  0  0  0  0  0  0  0  0  0
   -0.3299    0.5068    0.0866 C   0  0  0  0  0  0  0  0  0  0  0  0
   -1.0891   -0.6131   -0.2668 C   0  0  0  0  0  0  0  0  0  0  0  0
   -2.3776   -0.7910    0.2418 C   0  0  0  0  0  0  0  0  0  0  0  0
   -2.9185    0.1671    1.0991 C   0  0  0  0  0  0  0  0  0  0  0  0
   -4.1656    0.0431    1.6668 O   0  0  0  0  0  0  0  0  0  0  0  0
   -5.2054   -0.3136    0.8384 C   0  0  0  0  0  0  0  0  0  0  0  0
   -5.4469    0.3185   -0.3842 C   0  0  0  0  0  0  0  0  0  0  0  0
   -6.5414   -0.0676   -1.1592 C   0  0  0  0  0  0  0  0  0  0  0  0
   -7.3997   -1.0701   -0.7057 C   0  0  0  0  0  0  0  0  0  0  0  0
   -7.1700   -1.6833    0.5264 C   0  0  0  0  0  0  0  0  0  0  0  0
   -6.0763   -1.2995    1.3031 C   0  0  0  0  0  0  0  0  0  0  0  0
   -2.1592    1.2745    1.4751 C   0  0  0  0  0  0  0  0  0  0  0  0
   -0.8687    1.4493    0.9640 C   0  0  0  0  0  0  0  0  0  0  0  0
  1  2  1  0
  2  3  1  0
  3  4  1  0
  4  5  2  0
  4  6  1  0
  6  7  1  0
  7  8  1  0
  8  9  1  0
  9 10  1  0
 10 11  2  0
 11 12  1  0
 12 13  2  0
 13 14  1  0
 14 15  1  0
 15 16  2  0
 16 17  1  0
 17 18  2  0
 18 19  1  0
 19 20  2  0
 13 21  1  0
 21 22  2  0
 20 15  1  0
 22 10  1  0
M  END
>  <target>  (518) 
-4.7

$$$$

     RDKit          3D

 20 21  0  0  0  0  0  0  0  0999 V2000
   -0.8132   -2.4053   -1.7514 C   0  0  0  0  0  0  0  0  0  0  0  0
   -0.1561   -1.0662   -2.0236 C   0  0  0  0  0  0  0  0  0  0  0  0
    0.6579   -0.9796   -2.9480 O   0  0  0  0  0  0  0  0  0  0  0  0
   -0.4733   -0.0285   -1.1409 N   0  0  0  0  0  0  0  0  0  0  0  0
    0.5544    1.3125   -1.2245 S   0  0  0  0  0  0  0  0  0  0  0  0
    0.1085    2.4495   -0.3552 O   0  0  0  0  0  0  0  0  0  0  0  0
    1.9321    0.5257   -0.3387 C   0  0  0  0  0  0  0  0  0  0  0  0
    2.0255    0.5979    1.0542 C   0  0  0  0  0  0  0  0  0  0  0  0
    3.1061    0.0131    1.7248 C   0  0  0  0  0  0  0  0  0  0  0  0
    4.1380   -0.6043    1.0155 C   0  0  0  0  0  0  0  0  0  0  0  0
    5.1543   -1.2851    1.6940 N   0  0  0  0  0  0  0  0  0  0  0  0
    4.0209   -0.7128   -0.3713 C   0  0  0  0  0  0  0  0  0  0  0  0
    2.9442   -0.1281   -1.0480 C   0  0  0  0  0  0  0  0  0  0  0  0
   -1.8161    0.1632   -0.8073 C   0  0  0  0  0  0  0  0  0  0  0  0
   -2.7446   -0.4339   -1.6180 O   0  0  0  0  0  0  0  0  0  0  0  0
   -4.0199   -0.1260   -1.2098 N   0  0  0  0  0  0  0  0  0  0  0  0
   -3.8741    0.6541   -0.1374 C   0  0  0  0  0  0  0  0  0  0  0  0
   -5.0691    1.1716    0.5709 C   0  0  0  0  0  0  0  0  0  0  0  0
   -2.4988    0.8523    0.1839 C   0  0  0  0  0  0  0  0  0  0  0  0
   -1.9916    1.5958    1.3606 C   0  0  0  0  0  0  0  0  0  0  0  0
  1  2  1  0
  2  3  2  0
  2  4  1  0
  4  5  1  0
  5  6  2  0
  5  7  1  0
  7  8  2  0
  8  9  1  0
  9 10  2  0
 10 11  1  0
 10 12  1  0
 12 13  2  0
  4 14  1  0
 14 15  1  0
 15 16  1  0
 16 17  2  0
 17 18  1  0
 17 19  1  0
 19 20  1  0
 13  7  1  0
 19 14  2  0
M  END
>  <target>  (519) 
-3.59

$$$$

     RDKit          3D

  6  5  0  0  0  0  0  0  0  0999 V2000
    1.9115    0.4900    0.9937 Cl  0  0  0  0  0  0  0  0  0  0  0  0
    0.7696   -0.1320   -0.2375 C   0  0  0  0  0  0  0  0  0  0  0  0
   -0.7115    0.0666    0.1123 C   0  0  0  0  0  0  0  0  0  0  0  0
   -1.7127   -0.6106   -1.2225 Cl  0  0  0  0  0  0  0  0  0  0  0  0
   -1.1244    1.8016    0.2772 Cl  0  0  0  0  0  0  0  0  0  0  0  0
   -1.1559   -0.7950    1.6183 Cl  0  0  0  0  0  0  0  0  0  0  0  0
  1  2  1  0
  2  3  1  0
  3  4  1  0
  3  5  1  0
  3  6  1  0
M  END
>  <target>  (520) 
-2.18

$$$$

     RDKit          3D

  5  4  0  0  0  0  0  0  0  0999 V2000
   -1.9624    0.1880   -0.5781 C   0  0  0  0  0  0  0  0  0  0  0  0
   -0.6199   -0.4657   -0.2902 C   0  0  0  0  0  0  0  0  0  0  0  0
    0.2457    0.4113    0.6171 C   0  0  0  0  0  0  0  0  0  0  0  0
    1.5826   -0.2438    0.9460 C   0  0  0  0  0  0  0  0  0  0  0  0
    2.3545   -0.4401   -0.2304 O   0  0  0  0  0  0  0  0  0  0  0  0
  1  2  1  0
  2  3  1  0
  3  4  1  0
  4  5  1  0
M  END
>  <target>  (521) 
0.0

$$$$

     RDKit          3D

 17 18  0  0  0  0  0  0  0  0999 V2000
   -1.0088    1.6037   -1.8937 C   0  0  0  0  0  0  0  0  0  0  0  0
   -1.7806    0.8750   -0.7883 C   0  0  0  0  0  0  0  0  0  0  0  0
   -3.2800    0.8789   -1.1275 C   0  0  0  0  0  0  0  0  0  0  0  0
   -4.1048    0.1202   -0.0941 C   0  0  0  0  0  0  0  0  0  0  0  0
   -3.5995   -1.3059    0.0780 C   0  0  0  0  0  0  0  0  0  0  0  0
   -2.1191   -1.3294    0.4390 C   0  0  0  0  0  0  0  0  0  0  0  0
   -1.2596   -0.5659   -0.5832 C   0  0  0  0  0  0  0  0  0  0  0  0
    0.1340   -0.5544   -0.1452 N   0  0  0  0  0  0  0  0  0  0  0  0
    0.9412   -1.6381   -0.3257 C   0  0  0  0  0  0  0  0  0  0  0  0
    0.5813   -2.6582   -0.9087 O   0  0  0  0  0  0  0  0  0  0  0  0
    2.1830   -1.5916    0.2324 N   0  0  0  0  0  0  0  0  0  0  0  0
    2.9711   -0.5342    0.7215 C   0  0  0  0  0  0  0  0  0  0  0  0
    4.0967   -0.8804    1.4802 C   0  0  0  0  0  0  0  0  0  0  0  0
    4.9402    0.1054    1.9987 C   0  0  0  0  0  0  0  0  0  0  0  0
    4.6763    1.4488    1.7479 C   0  0  0  0  0  0  0  0  0  0  0  0
    3.5772    1.8029    0.9694 C   0  0  0  0  0  0  0  0  0  0  0  0
    2.7322    0.8152    0.4526 C   0  0  0  0  0  0  0  0  0  0  0  0
  1  2  1  0
  2  3  1  0
  3  4  1  0
  4  5  1  0
  5  6  1  0
  6  7  1  0
  7  8  1  0
  8  9  1  0
  9 10  2  0
  9 11  1  0
 11 12  1  0
 12 13  2  0
 13 14  1  0
 14 15  2  0
 15 16  1  0
 16 17  2  0
  7  2  1  0
 17 12  1  0
M  END
>  <target>  (522) 
-4.11

$$$$

     RDKit          3D

  9  9  0  0  0  0  0  0  0  0999 V2000
   -1.2129    2.8628   -0.0062 Cl  0  0  0  0  0  0  0  0  0  0  0  0
   -0.5416    1.2784   -0.0028 C   0  0  0  0  0  0  0  0  0  0  0  0
   -1.3876    0.1715   -0.0336 C   0  0  0  0  0  0  0  0  0  0  0  0
   -0.8359   -1.1082   -0.0306 C   0  0  0  0  0  0  0  0  0  0  0  0
   -1.8719   -2.4815   -0.0686 Cl  0  0  0  0  0  0  0  0  0  0  0  0
    0.5456   -1.2877    0.0028 C   0  0  0  0  0  0  0  0  0  0  0  0
    1.3775   -0.1703    0.0334 C   0  0  0  0  0  0  0  0  0  0  0  0
    3.0847   -0.3812    0.0748 Cl  0  0  0  0  0  0  0  0  0  0  0  0
    0.8420    1.1162    0.0309 C   0  0  0  0  0  0  0  0  0  0  0  0
  1  2  1  0
  2  3  2  0
  3  4  1  0
  4  5  1  0
  4  6  2  0
  6  7  1  0
  7  8  1  0
  7  9  2  0
  9  2  1  0
M  END
>  <target>  (523) 
-4.48

$$$$

     RDKit          3D

  7  7  0  0  0  0  0  0  0  0999 V2000
    2.8170    0.7475   -0.1554 O   0  0  0  0  0  0  0  0  0  0  0  0
    2.0429   -0.1938    0.0022 C   0  0  0  0  0  0  0  0  0  0  0  0
    0.6092   -0.0917    0.0060 C   0  0  0  0  0  0  0  0  0  0  0  0
   -0.2369    0.9881   -0.1510 C   0  0  0  0  0  0  0  0  0  0  0  0
   -1.5563    0.4843   -0.0542 C   0  0  0  0  0  0  0  0  0  0  0  0
   -1.4343   -0.8691    0.1554 C   0  0  0  0  0  0  0  0  0  0  0  0
   -0.1250   -1.2293    0.1937 O   0  0  0  0  0  0  0  0  0  0  0  0
  1  2  2  0
  2  3  1  0
  3  4  2  0
  4  5  1  0
  5  6  2  0
  6  7  1  0
  7  3  1  0
M  END
>  <target>  (524) 
-0.1

$$$$

     RDKit          3D

  6  5  0  0  0  0  0  0  0  0999 V2000
   -1.2205   -1.1348   -0.3384 C   0  0  0  0  0  0  0  0  0  0  0  0
   -0.7180    0.1599    0.3019 C   0  0  0  0  0  0  0  0  0  0  0  0
   -1.5764    1.3365   -0.1683 C   0  0  0  0  0  0  0  0  0  0  0  0
    0.7612    0.4333   -0.0146 C   0  0  0  0  0  0  0  0  0  0  0  0
    1.7124   -0.6206    0.5421 C   0  0  0  0  0  0  0  0  0  0  0  0
    3.0578   -0.2213    0.3092 O   0  0  0  0  0  0  0  0  0  0  0  0
  1  2  1  0
  2  3  1  0
  2  4  1  0
  4  5  1  0
  5  6  1  0
M  END
>  <target>  (525) 
-0.51

$$$$

     RDKit          3D

 11 12  0  0  0  0  0  0  0  0999 V2000
   -3.7700    0.9401    0.5271 O   0  0  0  0  0  0  0  0  0  0  0  0
   -2.9986   -0.0107    0.5121 C   0  0  0  0  0  0  0  0  0  0  0  0
   -1.5557    0.1542    0.2461 C   0  0  0  0  0  0  0  0  0  0  0  0
   -1.0277    1.4383   -0.0009 C   0  0  0  0  0  0  0  0  0  0  0  0
    0.3375    1.6030   -0.2536 C   0  0  0  0  0  0  0  0  0  0  0  0
    1.1288    0.4740   -0.2503 C   0  0  0  0  0  0  0  0  0  0  0  0
    2.4692    0.4432   -0.4748 O   0  0  0  0  0  0  0  0  0  0  0  0
    2.7361   -0.9689   -0.3475 C   0  0  0  0  0  0  0  0  0  0  0  0
    1.5585   -1.7500   -0.0514 O   0  0  0  0  0  0  0  0  0  0  0  0
    0.6087   -0.7775   -0.0086 C   0  0  0  0  0  0  0  0  0  0  0  0
   -0.7321   -0.9765    0.2442 C   0  0  0  0  0  0  0  0  0  0  0  0
  1  2  2  0
  2  3  1  0
  3  4  2  0
  4  5  1  0
  5  6  2  0
  6  7  1  0
  7  8  1  0
  8  9  1  0
  9 10  1  0
 10 11  2  0
 10  6  1  0
 11  3  1  0
M  END
>  <target>  (526) 
-1.63

$$$$

     RDKit          3D

  4  3  0  0  0  0  0  0  0  0999 V2000
    1.3844    0.0707    0.2163 C   0  0  0  0  0  0  0  0  0  0  0  0
   -0.1001    0.1793    0.0192 C   0  0  0  0  0  0  0  0  0  0  0  0
   -0.7516    1.3462    0.1439 C   0  0  0  0  0  0  0  0  0  0  0  0
   -0.8113   -1.0972   -0.3260 C   0  0  0  0  0  0  0  0  0  0  0  0
  1  2  1  0
  2  3  2  0
  2  4  1  0
M  END
>  <target>  (527) 
-2.33

$$$$

     RDKit          3D

  8  8  0  0  0  0  0  0  0  0999 V2000
    3.0503   -0.8983   -0.0145 O   0  0  0  0  0  0  0  0  0  0  0  0
    2.3464    0.1002   -0.0998 C   0  0  0  0  0  0  0  0  0  0  0  0
    0.8727    0.0340   -0.0368 C   0  0  0  0  0  0  0  0  0  0  0  0
    0.1288    1.2129   -0.1408 C   0  0  0  0  0  0  0  0  0  0  0  0
   -1.2648    1.1556   -0.0818 C   0  0  0  0  0  0  0  0  0  0  0  0
   -1.9081   -0.0727    0.0802 C   0  0  0  0  0  0  0  0  0  0  0  0
   -1.1622   -1.2478    0.1838 C   0  0  0  0  0  0  0  0  0  0  0  0
    0.2307   -1.1969    0.1255 C   0  0  0  0  0  0  0  0  0  0  0  0
  1  2  2  0
  2  3  1  0
  3  4  2  0
  4  5  1  0
  5  6  2  0
  6  7  1  0
  7  8  2  0
  8  3  1  0
M  END
>  <target>  (528) 
-1.19

$$$$

     RDKit          3D

  6  5  0  0  0  0  0  0  0  0999 V2000
    1.7487    0.3337   -0.3759 C   0  0  0  0  0  0  0  0  0  0  0  0
    0.5627   -0.5163   -0.0098 C   0  0  0  0  0  0  0  0  0  0  0  0
    0.6533   -1.8553    0.0519 C   0  0  0  0  0  0  0  0  0  0  0  0
   -0.6895    0.1788    0.2755 C   0  0  0  0  0  0  0  0  0  0  0  0
   -1.3577   -0.0193    1.4241 C   0  0  0  0  0  0  0  0  0  0  0  0
   -1.1996    1.1277   -0.7746 C   0  0  0  0  0  0  0  0  0  0  0  0
  1  2  1  0
  2  3  2  0
  2  4  1  0
  4  5  2  0
  4  6  1  0
M  END
>  <target>  (529) 
-2.4

$$$$

     RDKit          3D

 28 29  0  0  0  0  0  0  0  0999 V2000
    6.8393    1.5075    3.7233 C   0  0  0  0  0  0  0  0  0  0  0  0
    6.8636    1.6193    2.2114 C   0  0  0  0  0  0  0  0  0  0  0  0
    5.5114    1.5693    1.7377 O   0  0  0  0  0  0  0  0  0  0  0  0
    5.3880    1.6628    0.3855 C   0  0  0  0  0  0  0  0  0  0  0  0
    6.3182    1.7636   -0.4028 O   0  0  0  0  0  0  0  0  0  0  0  0
    3.9427    1.5866   -0.0223 C   0  0  0  0  0  0  0  0  0  0  0  0
    3.5462    0.1219   -0.1940 C   0  0  0  0  0  0  0  0  0  0  0  0
    2.1844   -0.0337   -0.7522 N   0  0  0  0  0  0  0  0  0  0  0  0
    0.8837    0.4971    0.1655 S   0  0  0  0  0  0  0  0  0  0  0  0
   -0.2352    1.0967   -0.9734 N   0  0  0  0  0  0  0  0  0  0  0  0
   -0.0198    2.4419   -1.4632 C   0  0  0  0  0  0  0  0  0  0  0  0
   -1.4606    0.4712   -1.2141 C   0  0  0  0  0  0  0  0  0  0  0  0
   -2.3362    0.9681   -1.9231 O   0  0  0  0  0  0  0  0  0  0  0  0
   -1.5624   -0.7815   -0.6049 O   0  0  0  0  0  0  0  0  0  0  0  0
   -2.8085   -1.3810   -0.7521 C   0  0  0  0  0  0  0  0  0  0  0  0
   -2.9386   -2.4802   -1.6002 C   0  0  0  0  0  0  0  0  0  0  0  0
   -4.1839   -3.1156   -1.7281 C   0  0  0  0  0  0  0  0  0  0  0  0
   -5.2927   -2.6651   -1.0024 C   0  0  0  0  0  0  0  0  0  0  0  0
   -5.1323   -1.5776   -0.1583 C   0  0  0  0  0  0  0  0  0  0  0  0
   -6.1141   -0.9380    0.7475 C   0  0  0  0  0  0  0  0  0  0  0  0
   -5.3105    0.3134    1.1701 C   0  0  0  0  0  0  0  0  0  0  0  0
   -5.4229    0.5588    2.6754 C   0  0  0  0  0  0  0  0  0  0  0  0
   -5.7600    1.5638    0.4027 C   0  0  0  0  0  0  0  0  0  0  0  0
   -3.9053    0.0870    0.8655 O   0  0  0  0  0  0  0  0  0  0  0  0
   -3.9049   -0.9512   -0.0287 C   0  0  0  0  0  0  0  0  0  0  0  0
    2.0201   -1.2908   -1.5287 C   0  0  0  0  0  0  0  0  0  0  0  0
    2.3706   -2.5577   -0.7408 C   0  0  0  0  0  0  0  0  0  0  0  0
    2.7847   -1.2375   -2.8574 C   0  0  0  0  0  0  0  0  0  0  0  0
  1  2  1  0
  2  3  1  0
  3  4  1  0
  4  5  2  0
  4  6  1  0
  6  7  1  0
  7  8  1  0
  8  9  1  0
  9 10  1  0
 10 11  1  0
 10 12  1  0
 12 13  2  0
 12 14  1  0
 14 15  1  0
 15 16  2  0
 16 17  1  0
 17 18  2  0
 18 19  1  0
 19 20  1  0
 20 21  1  0
 21 22  1  0
 21 23  1  0
 21 24  1  0
 24 25  1  0
  8 26  1  0
 26 27  1  0
 26 28  1  0
 25 15  1  0
 25 19  2  0
M  END
>  <target>  (530) 
-4.71

$$$$

     RDKit          3D

 17 19  0  0  0  0  0  0  0  0999 V2000
   -0.3963   -1.1228   -1.3704 O   0  0  0  0  0  0  0  0  0  0  0  0
    0.7795   -1.0086   -0.6752 C   0  0  0  0  0  0  0  0  0  0  0  0
    1.5162   -2.1898   -0.5211 C   0  0  0  0  0  0  0  0  0  0  0  0
    2.7663   -2.1583    0.0870 C   0  0  0  0  0  0  0  0  0  0  0  0
    3.2849   -0.9436    0.5207 C   0  0  0  0  0  0  0  0  0  0  0  0
    2.5524    0.2370    0.3466 C   0  0  0  0  0  0  0  0  0  0  0  0
    1.2779    0.2287   -0.2481 C   0  0  0  0  0  0  0  0  0  0  0  0
    0.5602    1.4517   -0.4455 N   0  0  0  0  0  0  0  0  0  0  0  0
    1.3287    2.6910   -0.5271 C   0  0  0  0  0  0  0  0  0  0  0  0
   -0.8365    1.5891   -0.4600 C   0  0  0  0  0  0  0  0  0  0  0  0
   -1.3886    2.6814   -0.6219 O   0  0  0  0  0  0  0  0  0  0  0  0
   -1.7306    0.4559   -0.1629 C   0  0  0  0  0  0  0  0  0  0  0  0
   -2.9174    0.6868    0.5440 C   0  0  0  0  0  0  0  0  0  0  0  0
   -3.7943   -0.3670    0.7887 C   0  0  0  0  0  0  0  0  0  0  0  0
   -3.4611   -1.6195    0.3027 C   0  0  0  0  0  0  0  0  0  0  0  0
   -2.3344   -1.8748   -0.3951 N   0  0  0  0  0  0  0  0  0  0  0  0
   -1.4921   -0.8298   -0.6047 C   0  0  0  0  0  0  0  0  0  0  0  0
  1  2  1  0
  2  3  2  0
  3  4  1  0
  4  5  2  0
  5  6  1  0
  6  7  2  0
  7  8  1  0
  8  9  1  0
  8 10  1  0
 10 11  2  0
 10 12  1  0
 12 13  2  0
 13 14  1  0
 14 15  2  0
 15 16  1  0
 16 17  2  0
  7  2  1  0
 17  1  1  0
 17 12  1  0
M  END
>  <target>  (531) 
-3.6719999999999997

$$$$

     RDKit          3D

 13 15  0  0  0  0  0  0  0  0999 V2000
   -0.0397   -1.7977    0.0407 C   0  0  0  0  0  0  0  0  0  0  0  0
   -1.1875   -0.8155    0.1572 C   0  0  0  0  0  0  0  0  0  0  0  0
   -2.5350   -1.0896    0.3226 C   0  0  0  0  0  0  0  0  0  0  0  0
   -3.4171   -0.0104    0.4056 C   0  0  0  0  0  0  0  0  0  0  0  0
   -2.9466    1.3114    0.3233 C   0  0  0  0  0  0  0  0  0  0  0  0
   -1.5838    1.5793    0.1562 C   0  0  0  0  0  0  0  0  0  0  0  0
   -0.7079    0.5101    0.0738 C   0  0  0  0  0  0  0  0  0  0  0  0
    0.7296    0.4746   -0.0961 C   0  0  0  0  0  0  0  0  0  0  0  0
    1.6518    1.4993   -0.2260 C   0  0  0  0  0  0  0  0  0  0  0  0
    3.0012    1.1643   -0.3794 C   0  0  0  0  0  0  0  0  0  0  0  0
    3.4129   -0.1794   -0.4013 C   0  0  0  0  0  0  0  0  0  0  0  0
    2.4842   -1.2137   -0.2704 C   0  0  0  0  0  0  0  0  0  0  0  0
    1.1503   -0.8733   -0.1190 C   0  0  0  0  0  0  0  0  0  0  0  0
  1  2  1  0
  2  3  2  0
  3  4  1  0
  4  5  2  0
  5  6  1  0
  6  7  2  0
  7  8  1  0
  8  9  2  0
  9 10  1  0
 10 11  2  0
 11 12  1  0
 12 13  2  0
 13  1  1  0
  7  2  1  0
 13  8  1  0
M  END
>  <target>  (532) 
-5.0

$$$$

     RDKit          3D

  7  7  0  0  0  0  0  0  0  0999 V2000
   -2.4136   -0.2455    0.1572 C   0  0  0  0  0  0  0  0  0  0  0  0
   -0.9091   -0.2217    0.4203 C   0  0  0  0  0  0  0  0  0  0  0  0
   -0.1756   -1.1655   -0.5423 C   0  0  0  0  0  0  0  0  0  0  0  0
    1.3365   -1.1192   -0.3343 C   0  0  0  0  0  0  0  0  0  0  0  0
    1.8757    0.3041   -0.4387 C   0  0  0  0  0  0  0  0  0  0  0  0
    1.1507    1.2500    0.5136 C   0  0  0  0  0  0  0  0  0  0  0  0
   -0.3616    1.2076    0.3070 C   0  0  0  0  0  0  0  0  0  0  0  0
  1  2  1  0
  2  3  1  0
  3  4  1  0
  4  5  1  0
  5  6  1  0
  6  7  1  0
  7  2  1  0
M  END
>  <target>  (533) 
-3.85

$$$$

     RDKit          3D

 14 14  0  0  0  0  0  0  0  0999 V2000
    2.7782    0.8433   -0.8399 N   0  0  0  0  0  0  0  0  0  0  0  0
    2.7159    1.1172    0.4714 C   0  0  0  0  0  0  0  0  0  0  0  0
    3.1596    2.2110    0.9628 N   0  0  0  0  0  0  0  0  0  0  0  0
    2.1699    0.1617    1.3011 N   0  0  0  0  0  0  0  0  0  0  0  0
    1.4651   -1.2923    0.8940 S   0  0  0  0  0  0  0  0  0  0  0  0
    2.1613   -1.8367   -0.2542 O   0  0  0  0  0  0  0  0  0  0  0  0
    1.3419   -2.0399    2.1271 O   0  0  0  0  0  0  0  0  0  0  0  0
   -0.1614   -0.7927    0.3905 C   0  0  0  0  0  0  0  0  0  0  0  0
   -1.1832   -0.7168    1.3395 C   0  0  0  0  0  0  0  0  0  0  0  0
   -2.4708   -0.3507    0.9372 C   0  0  0  0  0  0  0  0  0  0  0  0
   -2.7398   -0.0284   -0.3968 C   0  0  0  0  0  0  0  0  0  0  0  0
   -4.0531    0.2193   -0.8090 N   0  0  0  0  0  0  0  0  0  0  0  0
   -1.7228   -0.1809   -1.3445 C   0  0  0  0  0  0  0  0  0  0  0  0
   -0.4309   -0.5471   -0.9566 C   0  0  0  0  0  0  0  0  0  0  0  0
  1  2  1  0
  2  3  2  0
  2  4  1  0
  4  5  1  0
  5  6  2  0
  5  7  2  0
  5  8  1  0
  8  9  2  0
  9 10  1  0
 10 11  2  0
 11 12  1  0
 11 13  1  0
 13 14  2  0
 14  8  1  0
M  END
>  <target>  (534) 
-1.99

$$$$

     RDKit          3D

 11 11  0  0  0  0  0  0  0  0999 V2000
    3.4997   -1.1954    0.0269 C   0  0  0  0  0  0  0  0  0  0  0  0
    2.1265   -0.9325    0.3181 O   0  0  0  0  0  0  0  0  0  0  0  0
    1.5180   -0.1215   -0.5829 C   0  0  0  0  0  0  0  0  0  0  0  0
    2.0423    0.3691   -1.5706 O   0  0  0  0  0  0  0  0  0  0  0  0
    0.0941    0.1046   -0.2120 C   0  0  0  0  0  0  0  0  0  0  0  0
   -0.6836    0.9253   -1.0435 C   0  0  0  0  0  0  0  0  0  0  0  0
   -2.0260    1.1708   -0.7417 C   0  0  0  0  0  0  0  0  0  0  0  0
   -2.5864    0.5932    0.3929 C   0  0  0  0  0  0  0  0  0  0  0  0
   -3.8908    0.8044    0.7268 O   0  0  0  0  0  0  0  0  0  0  0  0
   -1.8299   -0.2223    1.2272 C   0  0  0  0  0  0  0  0  0  0  0  0
   -0.4878   -0.4689    0.9273 C   0  0  0  0  0  0  0  0  0  0  0  0
  1  2  1  0
  2  3  1  0
  3  4  2  0
  3  5  1  0
  5  6  2  0
  6  7  1  0
  7  8  2  0
  8  9  1  0
  8 10  1  0
 10 11  2  0
 11  5  1  0
M  END
>  <target>  (535) 
-1.827

$$$$

     RDKit          3D

  6  6  0  0  0  0  0  0  0  0999 V2000
    2.0644    0.2356   -0.2282 C   0  0  0  0  0  0  0  0  0  0  0  0
    0.6009    0.0437   -0.5757 C   0  0  0  0  0  0  0  0  0  0  0  0
   -0.1023   -0.9757    0.3037 C   0  0  0  0  0  0  0  0  0  0  0  0
   -1.5340   -0.5096    0.2180 C   0  0  0  0  0  0  0  0  0  0  0  0
   -1.3733    0.9959    0.2167 C   0  0  0  0  0  0  0  0  0  0  0  0
   -0.1089    1.2815   -0.3998 O   0  0  0  0  0  0  0  0  0  0  0  0
  1  2  1  0
  2  3  1  0
  3  4  1  0
  4  5  1  0
  5  6  1  0
  6  2  1  0
M  END
>  <target>  (536) 
0.11

$$$$

     RDKit          3D

 18 20  0  0  0  0  0  0  0  0999 V2000
    3.6021   -1.7229    0.0844 C   0  0  0  0  0  0  0  0  0  0  0  0
    2.7182   -0.6633   -0.5483 C   0  0  0  0  0  0  0  0  0  0  0  0
    1.2181   -0.9582   -0.5711 C   0  0  0  0  0  0  0  0  0  0  0  0
    0.7060   -1.6765    0.6837 C   0  0  0  0  0  0  0  0  0  0  0  0
   -0.8075   -1.5499    0.8249 C   0  0  0  0  0  0  0  0  0  0  0  0
   -1.2866   -0.0812    0.8707 C   0  0  0  0  0  0  0  0  0  0  0  0
   -0.7932    0.6296    2.1496 C   0  0  0  0  0  0  0  0  0  0  0  0
   -2.7988   -0.1054    0.9696 C   0  0  0  0  0  0  0  0  0  0  0  0
   -3.6196    0.5850    0.1733 C   0  0  0  0  0  0  0  0  0  0  0  0
   -3.0866    1.4280   -0.9099 C   0  0  0  0  0  0  0  0  0  0  0  0
   -3.8555    2.1019   -1.5869 O   0  0  0  0  0  0  0  0  0  0  0  0
   -1.6124    1.3867   -1.1737 C   0  0  0  0  0  0  0  0  0  0  0  0
   -0.7892    0.6556   -0.3800 C   0  0  0  0  0  0  0  0  0  0  0  0
    0.6773    0.4606   -0.7199 C   0  0  0  0  0  0  0  0  0  0  0  0
    1.5153    1.2535    0.1205 O   0  0  0  0  0  0  0  0  0  0  0  0
    2.7457    0.6552    0.1925 C   0  0  0  0  0  0  0  0  0  0  0  0
    3.7090    1.1415    0.7602 O   0  0  0  0  0  0  0  0  0  0  0  0
   -1.1965    2.2164   -2.3592 C   0  0  0  0  0  0  0  0  0  0  0  0
  1  2  1  0
  2  3  1  0
  3  4  1  0
  4  5  1  0
  5  6  1  0
  6  7  1  0
  6  8  1  0
  8  9  2  0
  9 10  1  0
 10 11  2  0
 10 12  1  0
 12 13  2  0
 13 14  1  0
 14 15  1  0
 15 16  1  0
 16 17  2  0
 12 18  1  0
 13  6  1  0
 14  3  1  0
 16  2  1  0
M  END
>  <target>  (537) 
-3.09

$$$$

     RDKit          3D

 20 21  0  0  0  0  0  0  0  0999 V2000
   -3.3694   -1.7769    1.7146 O   0  0  0  0  0  0  0  0  0  0  0  0
   -2.5924   -1.9282    0.5280 C   0  0  0  0  0  0  0  0  0  0  0  0
   -1.7904   -0.6549    0.2244 C   0  0  0  0  0  0  0  0  0  0  0  0
   -1.0808   -0.8720   -0.9986 O   0  0  0  0  0  0  0  0  0  0  0  0
   -0.2588    0.2392   -1.3927 C   0  0  0  0  0  0  0  0  0  0  0  0
    0.7792    0.5146   -0.4441 O   0  0  0  0  0  0  0  0  0  0  0  0
    1.8361   -0.3540   -0.3552 C   0  0  0  0  0  0  0  0  0  0  0  0
    1.9232   -1.5774   -1.0279 C   0  0  0  0  0  0  0  0  0  0  0  0
    3.0431   -2.3958   -0.8672 C   0  0  0  0  0  0  0  0  0  0  0  0
    4.0815   -2.0004   -0.0316 C   0  0  0  0  0  0  0  0  0  0  0  0
    4.0011   -0.7864    0.6486 C   0  0  0  0  0  0  0  0  0  0  0  0
    2.8821    0.0497    0.5003 C   0  0  0  0  0  0  0  0  0  0  0  0
    2.7828    1.3661    1.2346 C   0  0  0  0  0  0  0  0  0  0  0  0
    3.9121    1.6150    2.0659 O   0  0  0  0  0  0  0  0  0  0  0  0
   -1.1021    1.5194   -1.5666 C   0  0  0  0  0  0  0  0  0  0  0  0
   -2.0142    1.3972   -2.6717 O   0  0  0  0  0  0  0  0  0  0  0  0
   -1.8994    1.8001   -0.2945 C   0  0  0  0  0  0  0  0  0  0  0  0
   -2.7974    2.8996   -0.5329 O   0  0  0  0  0  0  0  0  0  0  0  0
   -2.7099    0.5744    0.1342 C   0  0  0  0  0  0  0  0  0  0  0  0
   -3.3345    0.8922    1.3869 O   0  0  0  0  0  0  0  0  0  0  0  0
  1  2  1  0
  2  3  1  0
  3  4  1  0
  4  5  1  0
  5  6  1  0
  6  7  1  0
  7  8  2  0
  8  9  1  0
  9 10  2  0
 10 11  1  0
 11 12  2  0
 12 13  1  0
 13 14  1  0
  5 15  1  0
 15 16  1  0
 15 17  1  0
 17 18  1  0
 17 19  1  0
 19 20  1  0
 12  7  1  0
 19  3  1  0
M  END
>  <target>  (538) 
-0.85

$$$$

     RDKit          3D

  4  3  0  0  0  0  0  0  0  0999 V2000
   -1.2582    0.3600    0.0005 C   0  0  0  0  0  0  0  0  0  0  0  0
   -0.0612   -0.4844   -0.4168 C   0  0  0  0  0  0  0  0  0  0  0  0
    1.2051   -0.1817    0.3838 C   0  0  0  0  0  0  0  0  0  0  0  0
    2.1264    1.6541   -0.2090 I   0  0  0  0  0  0  0  0  0  0  0  0
  1  2  1  0
  2  3  1  0
  3  4  1  0
M  END
>  <target>  (539) 
-2.29

$$$$

     RDKit          3D

 15 15  0  0  0  0  0  0  0  0999 V2000
    4.7945   -0.9072   -1.1228 C   0  0  0  0  0  0  0  0  0  0  0  0
    3.6104   -0.5610   -0.2338 C   0  0  0  0  0  0  0  0  0  0  0  0
    2.4177   -0.4300   -1.0516 N   0  0  0  0  0  0  0  0  0  0  0  0
    1.2477   -0.1875   -0.3395 C   0  0  0  0  0  0  0  0  0  0  0  0
    0.1522   -0.7398   -0.8406 N   0  0  0  0  0  0  0  0  0  0  0  0
   -0.9732   -0.5133   -0.1770 C   0  0  0  0  0  0  0  0  0  0  0  0
   -2.1059   -1.1085   -0.7083 N   0  0  0  0  0  0  0  0  0  0  0  0
   -3.3854   -0.4446   -0.4952 C   0  0  0  0  0  0  0  0  0  0  0  0
   -4.4968   -1.4407   -0.8289 C   0  0  0  0  0  0  0  0  0  0  0  0
   -3.5092    0.7945   -1.3819 C   0  0  0  0  0  0  0  0  0  0  0  0
   -1.0522    0.2189    0.9209 N   0  0  0  0  0  0  0  0  0  0  0  0
    0.0970    0.7325    1.3396 C   0  0  0  0  0  0  0  0  0  0  0  0
    0.0162    1.7196    2.8191 S   0  0  0  0  0  0  0  0  0  0  0  0
    1.6177    2.5566    2.7338 C   0  0  0  0  0  0  0  0  0  0  0  0
    1.2743    0.5573    0.7535 N   0  0  0  0  0  0  0  0  0  0  0  0
  1  2  1  0
  2  3  1  0
  3  4  1  0
  4  5  2  0
  5  6  1  0
  6  7  1  0
  7  8  1  0
  8  9  1  0
  8 10  1  0
  6 11  2  0
 11 12  1  0
 12 13  1  0
 13 14  1  0
 12 15  2  0
 15  4  1  0
M  END
>  <target>  (540) 
-3.04

$$$$

     RDKit          3D

  4  3  0  0  0  0  0  0  0  0999 V2000
    1.4845   -0.3145    0.0943 C   0  0  0  0  0  0  0  0  0  0  0  0
    0.2166    0.5067   -0.0549 C   0  0  0  0  0  0  0  0  0  0  0  0
   -1.0196   -0.3752   -0.1577 C   0  0  0  0  0  0  0  0  0  0  0  0
   -2.1775    0.4341   -0.3136 O   0  0  0  0  0  0  0  0  0  0  0  0
  1  2  1  0
  2  3  1  0
  3  4  1  0
M  END
>  <target>  (541) 
0.62

$$$$

     RDKit          3D

 24 27  0  0  0  0  0  0  0  0999 V2000
    4.7172   -1.4315    1.1536 C   0  0  0  0  0  0  0  0  0  0  0  0
    4.3066   -1.1421   -0.2654 C   0  0  0  0  0  0  0  0  0  0  0  0
    4.6843   -1.8684   -1.1916 O   0  0  0  0  0  0  0  0  0  0  0  0
    3.4164    0.0775   -0.5666 C   0  0  0  0  0  0  0  0  0  0  0  0
    4.0023    0.7162   -1.7150 O   0  0  0  0  0  0  0  0  0  0  0  0
    3.3503    1.1353    0.5289 C   0  0  0  0  0  0  0  0  0  0  0  0
    2.1985    2.0294    0.0875 C   0  0  0  0  0  0  0  0  0  0  0  0
    1.1823    1.1024   -0.6173 C   0  0  0  0  0  0  0  0  0  0  0  0
   -0.1506    1.0243    0.1820 C   0  0  0  0  0  0  0  0  0  0  0  0
   -0.9746    2.2992   -0.0865 C   0  0  0  0  0  0  0  0  0  0  0  0
   -2.3170    2.2838    0.6276 C   0  0  0  0  0  0  0  0  0  0  0  0
   -3.1127    1.0491    0.2845 C   0  0  0  0  0  0  0  0  0  0  0  0
   -4.3852    1.1628   -0.1358 C   0  0  0  0  0  0  0  0  0  0  0  0
   -5.2429   -0.0266   -0.3474 C   0  0  0  0  0  0  0  0  0  0  0  0
   -6.3862    0.1198   -0.7723 O   0  0  0  0  0  0  0  0  0  0  0  0
   -4.6992   -1.3716    0.0586 C   0  0  0  0  0  0  0  0  0  0  0  0
   -3.2017   -1.4354   -0.2021 C   0  0  0  0  0  0  0  0  0  0  0  0
   -2.3999   -0.2910    0.4852 C   0  0  0  0  0  0  0  0  0  0  0  0
   -2.3394   -0.5545    2.0091 C   0  0  0  0  0  0  0  0  0  0  0  0
   -0.9687   -0.2375   -0.1789 C   0  0  0  0  0  0  0  0  0  0  0  0
   -0.1483   -1.5285    0.0451 C   0  0  0  0  0  0  0  0  0  0  0  0
    1.3609   -1.3077    0.1557 C   0  0  0  0  0  0  0  0  0  0  0  0
    1.9137   -0.2633   -0.8363 C   0  0  0  0  0  0  0  0  0  0  0  0
    1.6987   -0.7657   -2.2818 C   0  0  0  0  0  0  0  0  0  0  0  0
  1  2  1  0
  2  3  2  0
  2  4  1  0
  4  5  1  0
  4  6  1  0
  6  7  1  0
  7  8  1  0
  8  9  1  0
  9 10  1  0
 10 11  1  0
 11 12  1  0
 12 13  2  0
 13 14  1  0
 14 15  2  0
 14 16  1  0
 16 17  1  0
 17 18  1  0
 18 19  1  0
 18 20  1  0
 20 21  1  0
 21 22  1  0
 22 23  1  0
 23 24  1  0
 23  4  1  0
 23  8  1  0
 20  9  1  0
 18 12  1  0
M  END
>  <target>  (542) 
-3.8169999999999997

$$$$

     RDKit          3D

  6  5  0  0  0  0  0  0  0  0999 V2000
   -2.6236    0.0111   -0.1567 C   0  0  0  0  0  0  0  0  0  0  0  0
   -1.2523   -0.4834   -0.5899 C   0  0  0  0  0  0  0  0  0  0  0  0
   -0.1318    0.3167    0.0801 C   0  0  0  0  0  0  0  0  0  0  0  0
    1.2568   -0.1447   -0.3741 C   0  0  0  0  0  0  0  0  0  0  0  0
    2.3584    0.7002    0.2514 C   0  0  0  0  0  0  0  0  0  0  0  0
    1.4638   -1.5071   -0.0109 O   0  0  0  0  0  0  0  0  0  0  0  0
  1  2  1  0
  2  3  1  0
  3  4  1  0
  4  5  1  0
  4  6  1  0
M  END
>  <target>  (543) 
-0.29

$$$$

     RDKit          3D

 16 17  0  0  0  0  0  0  0  0999 V2000
    0.8484   -2.3519    2.1089 O   0  0  0  0  0  0  0  0  0  0  0  0
    0.3342   -1.6707    0.9622 C   0  0  0  0  0  0  0  0  0  0  0  0
   -0.9711   -0.9451    1.3224 C   0  0  0  0  0  0  0  0  0  0  0  0
   -1.4362   -1.0349    2.4632 O   0  0  0  0  0  0  0  0  0  0  0  0
   -1.7017   -0.1473    0.2924 C   0  0  0  0  0  0  0  0  0  0  0  0
   -1.4520   -0.2730   -1.0789 C   0  0  0  0  0  0  0  0  0  0  0  0
   -2.1568    0.5127   -1.9949 C   0  0  0  0  0  0  0  0  0  0  0  0
   -3.1201    1.4165   -1.5496 C   0  0  0  0  0  0  0  0  0  0  0  0
   -3.3852    1.5363   -0.1874 C   0  0  0  0  0  0  0  0  0  0  0  0
   -2.6806    0.7561    0.7310 C   0  0  0  0  0  0  0  0  0  0  0  0
    1.4311   -0.7620    0.4537 C   0  0  0  0  0  0  0  0  0  0  0  0
    1.7429    0.4400    1.1089 C   0  0  0  0  0  0  0  0  0  0  0  0
    2.7416    1.2804    0.6143 C   0  0  0  0  0  0  0  0  0  0  0  0
    3.4531    0.9225   -0.5285 C   0  0  0  0  0  0  0  0  0  0  0  0
    3.1752   -0.2812   -1.1722 C   0  0  0  0  0  0  0  0  0  0  0  0
    2.1752   -1.1222   -0.6811 C   0  0  0  0  0  0  0  0  0  0  0  0
  1  2  1  0
  2  3  1  0
  3  4  2  0
  3  5  1  0
  5  6  2  0
  6  7  1  0
  7  8  2  0
  8  9  1  0
  9 10  2  0
  2 11  1  0
 11 12  2  0
 12 13  1  0
 13 14  2  0
 14 15  1  0
 15 16  2  0
 10  5  1  0
 16 11  1  0
M  END
>  <target>  (544) 
-2.85

$$$$

     RDKit          3D

  9  9  0  0  0  0  0  0  0  0999 V2000
    2.7813   -0.1668   -0.5613 C   0  0  0  0  0  0  0  0  0  0  0  0
    1.3582    0.1324   -0.1928 C   0  0  0  0  0  0  0  0  0  0  0  0
    0.9800    1.4261    0.1835 C   0  0  0  0  0  0  0  0  0  0  0  0
   -0.3502    1.7110    0.4955 C   0  0  0  0  0  0  0  0  0  0  0  0
   -1.3082    0.7017    0.4212 C   0  0  0  0  0  0  0  0  0  0  0  0
   -2.6143    0.9684    0.7232 O   0  0  0  0  0  0  0  0  0  0  0  0
   -0.9605   -0.5955    0.0351 C   0  0  0  0  0  0  0  0  0  0  0  0
   -1.9973   -1.6772   -0.0527 C   0  0  0  0  0  0  0  0  0  0  0  0
    0.3796   -0.8684   -0.2767 C   0  0  0  0  0  0  0  0  0  0  0  0
  1  2  1  0
  2  3  2  0
  3  4  1  0
  4  5  2  0
  5  6  1  0
  5  7  1  0
  7  8  1  0
  7  9  2  0
  9  2  1  0
M  END
>  <target>  (545) 
-1.19

$$$$

     RDKit          3D

 10 10  0  0  0  0  0  0  0  0999 V2000
   -2.6775   -1.9650    0.4739 Cl  0  0  0  0  0  0  0  0  0  0  0  0
   -1.4488   -0.7875    0.2207 C   0  0  0  0  0  0  0  0  0  0  0  0
   -1.8011    0.5557    0.0754 C   0  0  0  0  0  0  0  0  0  0  0  0
   -0.8124    1.5198   -0.1306 C   0  0  0  0  0  0  0  0  0  0  0  0
    0.5294    1.1399   -0.1911 C   0  0  0  0  0  0  0  0  0  0  0  0
    0.8725   -0.2124   -0.0439 C   0  0  0  0  0  0  0  0  0  0  0  0
   -0.1146   -1.1841    0.1629 C   0  0  0  0  0  0  0  0  0  0  0  0
    2.2827   -0.6141   -0.1072 N   0  0  0  0  0  0  0  0  0  0  0  0
    3.1268    0.2740   -0.2915 O   0  0  0  0  0  0  0  0  0  0  0  0
    2.5453   -1.8173    0.0273 O   0  0  0  0  0  0  0  0  0  0  0  0
  1  2  1  0
  2  3  2  0
  3  4  1  0
  4  5  2  0
  5  6  1  0
  6  7  2  0
  6  8  1  0
  8  9  1  0
  8 10  2  0
  7  2  1  0
M  CHG  2   8   1   9  -1
M  END
>  <target>  (546) 
-2.77

$$$$

     RDKit          3D

 15 16  0  0  0  0  0  0  0  0999 V2000
    3.2665    0.3245   -1.2594 C   0  0  0  0  0  0  0  0  0  0  0  0
    2.1136    0.2899   -0.3097 C   0  0  0  0  0  0  0  0  0  0  0  0
    2.1239    0.7503    0.9516 C   0  0  0  0  0  0  0  0  0  0  0  0
    3.0802    1.3757    1.7158 N   0  0  0  0  0  0  0  0  0  0  0  0
    0.7317    0.4939    1.4728 C   0  0  0  0  0  0  0  0  0  0  0  0
    0.3703    0.8689    2.5796 O   0  0  0  0  0  0  0  0  0  0  0  0
    0.0222   -0.1182    0.4323 N   0  0  0  0  0  0  0  0  0  0  0  0
   -1.3892   -0.0972    0.2801 C   0  0  0  0  0  0  0  0  0  0  0  0
   -1.9865   -0.1213   -0.9899 C   0  0  0  0  0  0  0  0  0  0  0  0
   -3.3775   -0.1042   -1.1354 C   0  0  0  0  0  0  0  0  0  0  0  0
   -4.1952   -0.0609   -0.0105 C   0  0  0  0  0  0  0  0  0  0  0  0
   -3.6221   -0.0299    1.2572 C   0  0  0  0  0  0  0  0  0  0  0  0
   -2.2304   -0.0456    1.4001 C   0  0  0  0  0  0  0  0  0  0  0  0
    0.8911   -0.2883   -0.6880 N   0  0  0  0  0  0  0  0  0  0  0  0
    0.9195   -1.6697   -1.2012 C   0  0  0  0  0  0  0  0  0  0  0  0
  1  2  1  0
  2  3  2  0
  3  4  1  0
  3  5  1  0
  5  6  2  0
  5  7  1  0
  7  8  1  0
  8  9  2  0
  9 10  1  0
 10 11  2  0
 11 12  1  0
 12 13  2  0
  7 14  1  0
 14 15  1  0
 13  8  1  0
 14  2  1  0
M  END
>  <target>  (547) 
-0.624

$$$$

     RDKit          3D

 16 17  0  0  0  0  0  0  0  0999 V2000
    5.2191   -0.3859    0.4583 Cl  0  0  0  0  0  0  0  0  0  0  0  0
    3.5114   -0.2551    0.2979 C   0  0  0  0  0  0  0  0  0  0  0  0
    2.7439    0.1378    1.3909 C   0  0  0  0  0  0  0  0  0  0  0  0
    1.3567    0.2438    1.2629 C   0  0  0  0  0  0  0  0  0  0  0  0
    0.7200   -0.0401    0.0407 C   0  0  0  0  0  0  0  0  0  0  0  0
    1.5196   -0.4383   -1.0492 C   0  0  0  0  0  0  0  0  0  0  0  0
    0.8258   -0.8202   -2.5885 Cl  0  0  0  0  0  0  0  0  0  0  0  0
    2.9076   -0.5448   -0.9220 C   0  0  0  0  0  0  0  0  0  0  0  0
   -0.7438    0.0869   -0.0525 C   0  0  0  0  0  0  0  0  0  0  0  0
   -1.5502   -1.0174    0.2815 C   0  0  0  0  0  0  0  0  0  0  0  0
   -2.9408   -0.9340    0.2013 C   0  0  0  0  0  0  0  0  0  0  0  0
   -3.9025   -2.2988    0.6150 Cl  0  0  0  0  0  0  0  0  0  0  0  0
   -3.5559    0.2453   -0.2091 C   0  0  0  0  0  0  0  0  0  0  0  0
   -2.7739    1.3517   -0.5419 C   0  0  0  0  0  0  0  0  0  0  0  0
   -1.3788    1.2753   -0.4640 C   0  0  0  0  0  0  0  0  0  0  0  0
   -0.4747    2.6896   -0.8831 Cl  0  0  0  0  0  0  0  0  0  0  0  0
  1  2  1  0
  2  3  2  0
  3  4  1  0
  4  5  2  0
  5  6  1  0
  6  7  1  0
  6  8  2  0
  5  9  1  0
  9 10  2  0
 10 11  1  0
 11 12  1  0
 11 13  2  0
 13 14  1  0
 14 15  2  0
 15 16  1  0
  8  2  1  0
 15  9  1  0
M  END
>  <target>  (548) 
-6.57

$$$$

     RDKit          3D

 10  9  0  0  0  0  0  0  0  0999 V2000
    3.1989   -0.3059    0.7987 Cl  0  0  0  0  0  0  0  0  0  0  0  0
    1.6496   -0.3824    0.0213 C   0  0  0  0  0  0  0  0  0  0  0  0
    0.6692    0.5118    0.2521 C   0  0  0  0  0  0  0  0  0  0  0  0
    0.8747    1.8385    1.3673 Cl  0  0  0  0  0  0  0  0  0  0  0  0
   -0.6431    0.4678   -0.3754 C   0  0  0  0  0  0  0  0  0  0  0  0
   -1.6674   -0.2887    0.0632 C   0  0  0  0  0  0  0  0  0  0  0  0
   -1.5282   -1.2992    1.4715 Cl  0  0  0  0  0  0  0  0  0  0  0  0
   -3.2157   -0.3261   -0.7192 Cl  0  0  0  0  0  0  0  0  0  0  0  0
   -0.7861    1.4857   -1.7859 Cl  0  0  0  0  0  0  0  0  0  0  0  0
    1.4483   -1.7015   -1.0937 Cl  0  0  0  0  0  0  0  0  0  0  0  0
  1  2  1  0
  2  3  2  3
  3  4  1  0
  3  5  1  0
  5  6  2  3
  6  7  1  0
  6  8  1  0
  5  9  1  0
  2 10  1  0
M  END
>  <target>  (549) 
-4.92

$$$$

     RDKit          3D

 16 16  0  0  0  0  0  0  0  0999 V2000
    5.3961   -1.7890    0.6681 C   0  0  0  0  0  0  0  0  0  0  0  0
    4.2924   -0.7430    0.6536 C   0  0  0  0  0  0  0  0  0  0  0  0
    3.0054   -1.4044    0.5333 N   0  0  0  0  0  0  0  0  0  0  0  0
    1.9136   -0.5486    0.4389 C   0  0  0  0  0  0  0  0  0  0  0  0
    0.9003   -0.9971   -0.2884 N   0  0  0  0  0  0  0  0  0  0  0  0
   -0.1575   -0.2023   -0.3793 C   0  0  0  0  0  0  0  0  0  0  0  0
   -1.1890   -0.7054   -1.1489 N   0  0  0  0  0  0  0  0  0  0  0  0
   -2.5975   -0.3992   -0.8823 C   0  0  0  0  0  0  0  0  0  0  0  0
   -2.9746   -0.6734    0.5806 C   0  0  0  0  0  0  0  0  0  0  0  0
   -3.4278   -1.3429   -1.7786 C   0  0  0  0  0  0  0  0  0  0  0  0
   -2.9391    1.0429   -1.2821 C   0  0  0  0  0  0  0  0  0  0  0  0
   -0.2424    0.9834    0.1971 N   0  0  0  0  0  0  0  0  0  0  0  0
    0.8242    1.3468    0.8990 C   0  0  0  0  0  0  0  0  0  0  0  0
    0.8236    2.9268    1.7214 S   0  0  0  0  0  0  0  0  0  0  0  0
   -0.7737    3.5811    1.1835 C   0  0  0  0  0  0  0  0  0  0  0  0
    1.9248    0.6219    1.0516 N   0  0  0  0  0  0  0  0  0  0  0  0
  1  2  1  0
  2  3  1  0
  3  4  1  0
  4  5  2  0
  5  6  1  0
  6  7  1  0
  7  8  1  0
  8  9  1  0
  8 10  1  0
  8 11  1  0
  6 12  2  0
 12 13  1  0
 13 14  1  0
 14 15  1  0
 13 16  2  0
 16  4  1  0
M  END
>  <target>  (550) 
-4.0

$$$$

     RDKit          3D

  7  6  0  0  0  0  0  0  0  0999 V2000
   -2.3027   -0.4748   -1.0555 C   0  0  0  0  0  0  0  0  0  0  0  0
   -1.5986    0.6559   -0.3183 C   0  0  0  0  0  0  0  0  0  0  0  0
   -0.3442    0.2089    0.4612 C   0  0  0  0  0  0  0  0  0  0  0  0
    0.1578    1.3821    1.3108 C   0  0  0  0  0  0  0  0  0  0  0  0
    0.7528   -0.3242   -0.4799 C   0  0  0  0  0  0  0  0  0  0  0  0
    2.0063   -0.8097    0.2404 C   0  0  0  0  0  0  0  0  0  0  0  0
    2.8836   -1.3940   -0.7150 O   0  0  0  0  0  0  0  0  0  0  0  0
  1  2  1  0
  2  3  1  0
  3  4  1  0
  3  5  1  0
  5  6  1  0
  6  7  1  0
M  END
>  <target>  (551) 
-0.71

$$$$

     RDKit          3D

 11 12  0  0  0  0  0  0  0  0999 V2000
    3.1489    0.6646    0.1050 C   0  0  0  0  0  0  0  0  0  0  0  0
    1.7548    0.1359   -0.0250 C   0  0  0  0  0  0  0  0  0  0  0  0
    1.6012   -1.1250   -0.4531 N   0  0  0  0  0  0  0  0  0  0  0  0
    0.3258   -1.5486   -0.5816 C   0  0  0  0  0  0  0  0  0  0  0  0
   -0.7905   -0.7910   -0.3168 C   0  0  0  0  0  0  0  0  0  0  0  0
   -2.0557   -1.2705   -0.4640 N   0  0  0  0  0  0  0  0  0  0  0  0
   -3.0427   -0.4046   -0.1662 C   0  0  0  0  0  0  0  0  0  0  0  0
   -2.7728    0.8783    0.2577 C   0  0  0  0  0  0  0  0  0  0  0  0
   -1.5107    1.3444    0.4005 N   0  0  0  0  0  0  0  0  0  0  0  0
   -0.5006    0.5136    0.1147 C   0  0  0  0  0  0  0  0  0  0  0  0
    0.7434    0.9711    0.2545 N   0  0  0  0  0  0  0  0  0  0  0  0
  1  2  1  0
  2  3  2  0
  3  4  1  0
  4  5  2  0
  5  6  1  0
  6  7  2  0
  7  8  1  0
  8  9  2  0
  9 10  1  0
 10 11  2  0
 10  5  1  0
 11  2  1  0
M  END
>  <target>  (552) 
-0.12

$$$$

     RDKit          3D

 25 29  0  0  0  0  0  0  0  0999 V2000
   -2.2900   -0.4547   -2.0705 C   0  0  0  0  0  0  0  0  0  0  0  0
   -1.9784    0.2146   -0.7056 C   0  0  0  0  0  0  0  0  0  0  0  0
   -2.3642    1.7474   -0.8174 C   0  0  0  0  0  0  0  0  0  0  0  0
   -3.7302    2.0355   -0.3243 C   0  0  0  0  0  0  0  0  0  0  0  0
   -4.5739    3.1440   -0.4769 C   0  0  0  0  0  0  0  0  0  0  0  0
   -5.7182    2.9867    0.1920 N   0  0  0  0  0  0  0  0  0  0  0  0
   -5.6187    1.7453    0.8063 O   0  0  0  0  0  0  0  0  0  0  0  0
   -4.4202    1.1675    0.4927 C   0  0  0  0  0  0  0  0  0  0  0  0
   -3.9498   -0.0970    0.9063 C   0  0  0  0  0  0  0  0  0  0  0  0
   -2.8120   -0.5674    0.3520 C   0  0  0  0  0  0  0  0  0  0  0  0
   -2.3217   -1.9519    0.6955 C   0  0  0  0  0  0  0  0  0  0  0  0
   -0.8588   -1.9298    1.1091 C   0  0  0  0  0  0  0  0  0  0  0  0
    0.0401   -1.2881    0.0365 C   0  0  0  0  0  0  0  0  0  0  0  0
   -0.4460    0.1340   -0.3302 C   0  0  0  0  0  0  0  0  0  0  0  0
    0.4665    0.8104   -1.3801 C   0  0  0  0  0  0  0  0  0  0  0  0
    1.7724    0.0767   -1.6791 C   0  0  0  0  0  0  0  0  0  0  0  0
    2.5023   -0.5386   -0.4690 C   0  0  0  0  0  0  0  0  0  0  0  0
    3.5215   -1.5700   -1.0286 C   0  0  0  0  0  0  0  0  0  0  0  0
    1.5242   -1.3103    0.4802 C   0  0  0  0  0  0  0  0  0  0  0  0
    1.7997   -0.7692    1.8974 C   0  0  0  0  0  0  0  0  0  0  0  0
    3.2010   -0.1780    1.8288 C   0  0  0  0  0  0  0  0  0  0  0  0
    3.2021    0.5093    0.4635 C   0  0  0  0  0  0  0  0  0  0  0  0
    2.4131    1.6935    0.5878 O   0  0  0  0  0  0  0  0  0  0  0  0
    4.5560    0.9088    0.0478 C   0  0  0  0  0  0  0  0  0  0  0  0
    5.6596    1.2497   -0.2831 C   0  0  0  0  0  0  0  0  0  0  0  0
  1  2  1  0
  2  3  1  0
  3  4  1  0
  4  5  1  0
  5  6  2  0
  6  7  1  0
  7  8  1  0
  8  9  1  0
  9 10  2  0
 10 11  1  0
 11 12  1  0
 12 13  1  0
 13 14  1  0
 14 15  1  0
 15 16  1  0
 16 17  1  0
 17 18  1  0
 17 19  1  0
 19 20  1  0
 20 21  1  0
 21 22  1  0
 22 23  1  0
 22 24  1  0
 24 25  3  0
  8  4  2  0
 10  2  1  0
 14  2  1  0
 19 13  1  0
 22 17  1  0
M  END
>  <target>  (553) 
-5.507000000000001

$$$$

     RDKit          3D

  5  4  0  0  0  0  0  0  0  0999 V2000
   -1.8147   -0.7999    0.0045 C   0  0  0  0  0  0  0  0  0  0  0  0
   -0.6242   -0.0289   -0.5433 C   0  0  0  0  0  0  0  0  0  0  0  0
    0.5226    0.0235    0.4670 C   0  0  0  0  0  0  0  0  0  0  0  0
    1.7142    0.7999   -0.0919 C   0  0  0  0  0  0  0  0  0  0  0  0
    3.3083    0.8642    1.3316 I   0  0  0  0  0  0  0  0  0  0  0  0
  1  2  1  0
  2  3  1  0
  3  4  1  0
  4  5  1  0
M  END
>  <target>  (554) 
-2.96

$$$$

     RDKit          3D

 11 12  0  0  0  0  0  0  0  0999 V2000
   -3.9740    1.6883   -0.4448 Br  0  0  0  0  0  0  0  0  0  0  0  0
   -2.3629    0.7145   -0.2653 C   0  0  0  0  0  0  0  0  0  0  0  0
   -2.3944   -0.6767   -0.2729 C   0  0  0  0  0  0  0  0  0  0  0  0
   -1.2046   -1.3952   -0.1404 C   0  0  0  0  0  0  0  0  0  0  0  0
    0.0237   -0.7290    0.0006 C   0  0  0  0  0  0  0  0  0  0  0  0
    1.2283   -1.4376    0.1348 C   0  0  0  0  0  0  0  0  0  0  0  0
    2.4416   -0.7618    0.2741 C   0  0  0  0  0  0  0  0  0  0  0  0
    2.4666    0.6297    0.2810 C   0  0  0  0  0  0  0  0  0  0  0  0
    1.2782    1.3498    0.1486 C   0  0  0  0  0  0  0  0  0  0  0  0
    0.0488    0.6859    0.0075 C   0  0  0  0  0  0  0  0  0  0  0  0
   -1.1547    1.3968   -0.1266 C   0  0  0  0  0  0  0  0  0  0  0  0
  1  2  1  0
  2  3  2  0
  3  4  1  0
  4  5  2  0
  5  6  1  0
  6  7  2  0
  7  8  1  0
  8  9  2  0
  9 10  1  0
 10 11  2  0
 11  2  1  0
 10  5  1  0
M  END
>  <target>  (555) 
-4.4

$$$$

     RDKit          3D

 55 62  0  0  0  0  0  0  0  0999 V2000
   12.6455   -1.3077    0.7539 C   0  0  0  0  0  0  0  0  0  0  0  0
   12.1706    0.1357    0.6307 C   0  0  0  0  0  0  0  0  0  0  0  0
   11.0321    0.2774    1.4925 O   0  0  0  0  0  0  0  0  0  0  0  0
   10.0800    1.2708    1.1277 C   0  0  0  0  0  0  0  0  0  0  0  0
   10.7246    2.4438    0.3997 C   0  0  0  0  0  0  0  0  0  0  0  0
   11.3671    1.9766   -0.9069 C   0  0  0  0  0  0  0  0  0  0  0  0
   10.4248    2.0726   -1.9843 O   0  0  0  0  0  0  0  0  0  0  0  0
   11.9089    0.5374   -0.8309 C   0  0  0  0  0  0  0  0  0  0  0  0
   10.9841   -0.3645   -1.4603 O   0  0  0  0  0  0  0  0  0  0  0  0
    9.0638    0.7218    0.2861 O   0  0  0  0  0  0  0  0  0  0  0  0
    8.1947   -0.2016    0.9825 C   0  0  0  0  0  0  0  0  0  0  0  0
    7.7801   -1.2897   -0.0173 C   0  0  0  0  0  0  0  0  0  0  0  0
    8.9219   -1.9551   -0.5609 O   0  0  0  0  0  0  0  0  0  0  0  0
    6.9552   -0.6927   -1.1479 C   0  0  0  0  0  0  0  0  0  0  0  0
    5.7566    0.0648   -0.5882 C   0  0  0  0  0  0  0  0  0  0  0  0
    6.1235    1.0251    0.3994 O   0  0  0  0  0  0  0  0  0  0  0  0
    6.9519    0.5622    1.4779 C   0  0  0  0  0  0  0  0  0  0  0  0
    6.1482   -0.2148    2.5182 C   0  0  0  0  0  0  0  0  0  0  0  0
    4.8040   -0.8580   -0.0615 O   0  0  0  0  0  0  0  0  0  0  0  0
    3.5940   -0.9487   -0.8277 C   0  0  0  0  0  0  0  0  0  0  0  0
    2.9020   -2.2690   -0.4489 C   0  0  0  0  0  0  0  0  0  0  0  0
    2.7791   -2.3860    0.9718 O   0  0  0  0  0  0  0  0  0  0  0  0
    1.5292   -2.3791   -1.0884 C   0  0  0  0  0  0  0  0  0  0  0  0
    0.6954   -1.1316   -0.8142 C   0  0  0  0  0  0  0  0  0  0  0  0
   -0.5296   -1.2832   -1.5387 O   0  0  0  0  0  0  0  0  0  0  0  0
   -1.5005   -0.2800   -1.2271 C   0  0  0  0  0  0  0  0  0  0  0  0
   -2.5281   -0.2695   -2.3569 C   0  0  0  0  0  0  0  0  0  0  0  0
   -3.6007    0.7940   -2.1267 C   0  0  0  0  0  0  0  0  0  0  0  0
   -4.1975    0.7928   -0.6803 C   0  0  0  0  0  0  0  0  0  0  0  0
   -3.7124    2.1213   -0.0240 C   0  0  0  0  0  0  0  0  0  0  0  0
   -3.6865   -0.4354    0.1234 C   0  0  0  0  0  0  0  0  0  0  0  0
   -4.2400   -0.4725    1.5534 C   0  0  0  0  0  0  0  0  0  0  0  0
   -5.7653   -0.4224    1.5798 C   0  0  0  0  0  0  0  0  0  0  0  0
   -6.3648    0.7400    0.7541 C   0  0  0  0  0  0  0  0  0  0  0  0
   -5.7764    0.7880   -0.6874 C   0  0  0  0  0  0  0  0  0  0  0  0
   -6.4232   -0.3430   -1.5261 C   0  0  0  0  0  0  0  0  0  0  0  0
   -7.9492   -0.1868   -1.6165 C   0  0  0  0  0  0  0  0  0  0  0  0
   -8.2315    1.0067   -2.3504 O   0  0  0  0  0  0  0  0  0  0  0  0
   -8.6553   -0.1896   -0.2227 C   0  0  0  0  0  0  0  0  0  0  0  0
   -8.7168   -1.6593    0.2563 C   0  0  0  0  0  0  0  0  0  0  0  0
  -10.0988    0.4495   -0.3361 C   0  0  0  0  0  0  0  0  0  0  0  0
   -9.9425    1.9310    0.0805 C   0  0  0  0  0  0  0  0  0  0  0  0
   -8.4705    2.1535    0.4094 C   0  0  0  0  0  0  0  0  0  0  0  0
   -7.9235    0.7627    0.7741 C   0  0  0  0  0  0  0  0  0  0  0  0
   -8.3734    0.4979    2.1122 O   0  0  0  0  0  0  0  0  0  0  0  0
  -11.2224   -0.2281    0.4109 C   0  0  0  0  0  0  0  0  0  0  0  0
  -11.5049   -0.2032    1.7137 C   0  0  0  0  0  0  0  0  0  0  0  0
  -12.6932   -1.0271    1.9142 C   0  0  0  0  0  0  0  0  0  0  0  0
  -13.2289   -1.2307    2.9880 O   0  0  0  0  0  0  0  0  0  0  0  0
  -13.1010   -1.5220    0.7149 O   0  0  0  0  0  0  0  0  0  0  0  0
  -12.2223   -1.0538   -0.3062 C   0  0  0  0  0  0  0  0  0  0  0  0
   -2.1533   -0.5597    0.1357 C   0  0  0  0  0  0  0  0  0  0  0  0
    1.3862    0.0310   -1.2754 O   0  0  0  0  0  0  0  0  0  0  0  0
    2.6491    0.2594   -0.6363 C   0  0  0  0  0  0  0  0  0  0  0  0
    2.4647    0.7405    0.8026 C   0  0  0  0  0  0  0  0  0  0  0  0
  1  2  1  0
  2  3  1  0
  3  4  1  0
  4  5  1  0
  5  6  1  0
  6  7  1  0
  6  8  1  0
  8  9  1  0
  4 10  1  0
 10 11  1  0
 11 12  1  0
 12 13  1  0
 12 14  1  0
 14 15  1  0
 15 16  1  0
 16 17  1  0
 17 18  1  0
 15 19  1  0
 19 20  1  0
 20 21  1  0
 21 22  1  0
 21 23  1  0
 23 24  1  0
 24 25  1  0
 25 26  1  0
 26 27  1  0
 27 28  1  0
 28 29  1  0
 29 30  1  0
 29 31  1  0
 31 32  1  0
 32 33  1  0
 33 34  1  0
 34 35  1  0
 35 36  1  0
 36 37  1  0
 37 38  1  0
 37 39  1  0
 39 40  1  0
 39 41  1  0
 41 42  1  0
 42 43  1  0
 43 44  1  0
 44 45  1  0
 41 46  1  0
 46 47  2  0
 47 48  1  0
 48 49  2  0
 48 50  1  0
 50 51  1  0
 31 52  1  0
 24 53  1  0
 53 54  1  0
 54 55  1  0
  8  2  1  0
 17 11  1  0
 35 29  1  0
 44 34  1  0
 44 39  1  0
 51 46  1  0
 52 26  1  0
 54 20  1  0
M  END
>  <target>  (556) 
-4.081

$$$$

     RDKit          3D

 10 10  0  0  0  0  0  0  0  0999 V2000
    2.7337    1.0871    0.6631 F   0  0  0  0  0  0  0  0  0  0  0  0
    2.1958   -0.0534    0.1459 C   0  0  0  0  0  0  0  0  0  0  0  0
    2.6639   -1.0687    0.9253 F   0  0  0  0  0  0  0  0  0  0  0  0
    2.7782   -0.2206   -1.0737 F   0  0  0  0  0  0  0  0  0  0  0  0
    0.6902   -0.0147    0.0630 C   0  0  0  0  0  0  0  0  0  0  0  0
    0.0177    1.2006   -0.1407 C   0  0  0  0  0  0  0  0  0  0  0  0
   -1.3744    1.2324   -0.2384 C   0  0  0  0  0  0  0  0  0  0  0  0
   -2.1076    0.0512   -0.1404 C   0  0  0  0  0  0  0  0  0  0  0  0
   -1.4519   -1.1634    0.0529 C   0  0  0  0  0  0  0  0  0  0  0  0
   -0.0600   -1.1980    0.1510 C   0  0  0  0  0  0  0  0  0  0  0  0
  1  2  1  0
  2  3  1  0
  2  4  1  0
  2  5  1  0
  5  6  2  0
  6  7  1  0
  7  8  2  0
  8  9  1  0
  9 10  2  0
 10  5  1  0
M  END
>  <target>  (557) 
-2.51

$$$$

     RDKit          3D

 24 24  0  0  0  0  0  0  0  0999 V2000
    8.2394   -0.9194   -1.6794 C   0  0  0  0  0  0  0  0  0  0  0  0
    6.9006   -0.1987   -1.6318 C   0  0  0  0  0  0  0  0  0  0  0  0
    5.7737   -1.0805   -2.1712 C   0  0  0  0  0  0  0  0  0  0  0  0
    4.4237   -0.3622   -2.2501 C   0  0  0  0  0  0  0  0  0  0  0  0
    3.8564    0.0163   -0.8828 C   0  0  0  0  0  0  0  0  0  0  0  0
    2.4630    0.6273   -1.0065 C   0  0  0  0  0  0  0  0  0  0  0  0
    1.9846    1.0219    0.2889 O   0  0  0  0  0  0  0  0  0  0  0  0
    1.3437    0.0564    0.9928 C   0  0  0  0  0  0  0  0  0  0  0  0
    1.1549   -1.0976    0.6502 O   0  0  0  0  0  0  0  0  0  0  0  0
    0.8910    0.6210    2.2809 C   0  0  0  0  0  0  0  0  0  0  0  0
    1.7771    1.4073    3.0355 C   0  0  0  0  0  0  0  0  0  0  0  0
    1.4027    1.8740    4.2974 C   0  0  0  0  0  0  0  0  0  0  0  0
    0.1508    1.5505    4.8189 C   0  0  0  0  0  0  0  0  0  0  0  0
   -0.7355    0.7704    4.0744 C   0  0  0  0  0  0  0  0  0  0  0  0
   -0.3736    0.3149    2.7976 C   0  0  0  0  0  0  0  0  0  0  0  0
   -1.3820   -0.4610    2.0506 C   0  0  0  0  0  0  0  0  0  0  0  0
   -2.0561   -1.3454    2.5507 O   0  0  0  0  0  0  0  0  0  0  0  0
   -1.5029    0.0580    0.8048 O   0  0  0  0  0  0  0  0  0  0  0  0
   -2.4510   -0.6013   -0.0477 C   0  0  0  0  0  0  0  0  0  0  0  0
   -3.8306    0.0254    0.1285 C   0  0  0  0  0  0  0  0  0  0  0  0
   -4.8606   -0.6138   -0.8004 C   0  0  0  0  0  0  0  0  0  0  0  0
   -6.2409    0.0199   -0.6207 C   0  0  0  0  0  0  0  0  0  0  0  0
   -7.2717   -0.6198   -1.5504 C   0  0  0  0  0  0  0  0  0  0  0  0
   -8.6455    0.0074   -1.3748 C   0  0  0  0  0  0  0  0  0  0  0  0
  1  2  1  0
  2  3  1  0
  3  4  1  0
  4  5  1  0
  5  6  1  0
  6  7  1  0
  7  8  1  0
  8  9  2  0
  8 10  1  0
 10 11  2  0
 11 12  1  0
 12 13  2  0
 13 14  1  0
 14 15  2  0
 15 16  1  0
 16 17  2  0
 16 18  1  0
 18 19  1  0
 19 20  1  0
 20 21  1  0
 21 22  1  0
 22 23  1  0
 23 24  1  0
 15 10  1  0
M  END
>  <target>  (558) 
-6.144

$$$$

     RDKit          3D

 13 15  0  0  0  0  0  0  0  0999 V2000
    3.4981   -0.3395   -0.2083 C   0  0  0  0  0  0  0  0  0  0  0  0
    3.0524    0.9541    0.0156 C   0  0  0  0  0  0  0  0  0  0  0  0
    1.6839    1.2164    0.1306 C   0  0  0  0  0  0  0  0  0  0  0  0
    0.7305    0.1697    0.0210 C   0  0  0  0  0  0  0  0  0  0  0  0
    1.2090   -1.1215   -0.2042 C   0  0  0  0  0  0  0  0  0  0  0  0
    2.5877   -1.3917   -0.3210 C   0  0  0  0  0  0  0  0  0  0  0  0
   -0.0716   -2.2574   -0.3098 S   0  0  0  0  0  0  0  0  0  0  0  0
   -1.2784   -1.0646   -0.0600 C   0  0  0  0  0  0  0  0  0  0  0  0
   -2.6722   -1.2714   -0.0160 C   0  0  0  0  0  0  0  0  0  0  0  0
   -3.5146   -0.1791    0.1983 C   0  0  0  0  0  0  0  0  0  0  0  0
   -2.9875    1.0923    0.3658 C   0  0  0  0  0  0  0  0  0  0  0  0
   -1.6043    1.2917    0.3212 C   0  0  0  0  0  0  0  0  0  0  0  0
   -0.7186    0.2029    0.1050 C   0  0  0  0  0  0  0  0  0  0  0  0
  1  2  2  0
  2  3  1  0
  3  4  2  0
  4  5  1  0
  5  6  2  0
  5  7  1  0
  7  8  1  0
  8  9  2  0
  9 10  1  0
 10 11  2  0
 11 12  1  0
 12 13  2  0
  6  1  1  0
 13  4  1  0
 13  8  1  0
M  END
>  <target>  (559) 
-4.38

$$$$

     RDKit          3D

 17 18  0  0  0  0  0  0  0  0999 V2000
    5.2602   -0.4602   -0.0186 Cl  0  0  0  0  0  0  0  0  0  0  0  0
    3.5475   -0.3020   -0.0126 C   0  0  0  0  0  0  0  0  0  0  0  0
    2.7597   -1.3116   -0.5590 C   0  0  0  0  0  0  0  0  0  0  0  0
    1.3684   -1.1847   -0.5569 C   0  0  0  0  0  0  0  0  0  0  0  0
    0.7479   -0.0479   -0.0069 C   0  0  0  0  0  0  0  0  0  0  0  0
    1.5686    0.9607    0.5372 C   0  0  0  0  0  0  0  0  0  0  0  0
    0.8953    2.3998    1.2242 Cl  0  0  0  0  0  0  0  0  0  0  0  0
    2.9605    0.8345    0.5352 C   0  0  0  0  0  0  0  0  0  0  0  0
   -0.7231    0.0476   -0.0219 C   0  0  0  0  0  0  0  0  0  0  0  0
   -1.3468    0.6288   -1.1391 C   0  0  0  0  0  0  0  0  0  0  0  0
   -2.7339    0.7511   -1.2010 C   0  0  0  0  0  0  0  0  0  0  0  0
   -3.5264    0.2926   -0.1471 C   0  0  0  0  0  0  0  0  0  0  0  0
   -5.2383    0.4840   -0.3122 Cl  0  0  0  0  0  0  0  0  0  0  0  0
   -2.9350   -0.2954    0.9807 C   0  0  0  0  0  0  0  0  0  0  0  0
   -3.9319   -0.8692    2.2847 Cl  0  0  0  0  0  0  0  0  0  0  0  0
   -1.5325   -0.4176    1.0410 C   0  0  0  0  0  0  0  0  0  0  0  0
   -0.7696   -1.1516    2.4254 Cl  0  0  0  0  0  0  0  0  0  0  0  0
  1  2  1  0
  2  3  2  0
  3  4  1  0
  4  5  2  0
  5  6  1  0
  6  7  1  0
  6  8  2  0
  5  9  1  0
  9 10  2  0
 10 11  1  0
 11 12  2  0
 12 13  1  0
 12 14  1  0
 14 15  1  0
 14 16  2  0
 16 17  1  0
  8  2  1  0
 16  9  1  0
M  END
>  <target>  (560) 
-7.8

$$$$

     RDKit          3D

 18 19  0  0  0  0  0  0  0  0999 V2000
    5.2802    0.1735   -0.0684 Cl  0  0  0  0  0  0  0  0  0  0  0  0
    3.5522    0.1464    0.0174 C   0  0  0  0  0  0  0  0  0  0  0  0
    2.8692   -0.2990   -1.1160 C   0  0  0  0  0  0  0  0  0  0  0  0
    1.4759   -0.3462   -1.1218 C   0  0  0  0  0  0  0  0  0  0  0  0
    0.7369    0.0484    0.0065 C   0  0  0  0  0  0  0  0  0  0  0  0
    1.4359    0.5017    1.1504 C   0  0  0  0  0  0  0  0  0  0  0  0
    0.5263    1.0056    2.5491 Cl  0  0  0  0  0  0  0  0  0  0  0  0
    2.8440    0.5509    1.1584 C   0  0  0  0  0  0  0  0  0  0  0  0
    3.7033    1.1112    2.5619 Cl  0  0  0  0  0  0  0  0  0  0  0  0
   -0.7362   -0.0285   -0.0508 C   0  0  0  0  0  0  0  0  0  0  0  0
   -1.4506    1.0866   -0.5211 C   0  0  0  0  0  0  0  0  0  0  0  0
   -2.8430    1.0670   -0.5882 C   0  0  0  0  0  0  0  0  0  0  0  0
   -3.5496   -0.0691   -0.1888 C   0  0  0  0  0  0  0  0  0  0  0  0
   -5.2743   -0.0029   -0.3101 Cl  0  0  0  0  0  0  0  0  0  0  0  0
   -2.8661   -1.1998    0.2817 C   0  0  0  0  0  0  0  0  0  0  0  0
   -3.7545   -2.6124    0.7692 Cl  0  0  0  0  0  0  0  0  0  0  0  0
   -1.4589   -1.1775    0.3491 C   0  0  0  0  0  0  0  0  0  0  0  0
   -0.5797   -2.5694    0.9210 Cl  0  0  0  0  0  0  0  0  0  0  0  0
  1  2  1  0
  2  3  2  0
  3  4  1  0
  4  5  2  0
  5  6  1  0
  6  7  1  0
  6  8  2  0
  8  9  1  0
  5 10  1  0
 10 11  2  0
 11 12  1  0
 12 13  2  0
 13 14  1  0
 13 15  1  0
 15 16  1  0
 15 17  2  0
 17 18  1  0
  8  2  1  0
 17 10  1  0
M  END
>  <target>  (561) 
-8.01

$$$$

     RDKit          3D

 23 25  0  0  0  0  0  0  0  0999 V2000
   -3.8675   -2.5821   -1.2950 C   0  0  0  0  0  0  0  0  0  0  0  0
   -2.7257   -2.2876   -0.3580 C   0  0  0  0  0  0  0  0  0  0  0  0
   -2.7601   -2.6494    0.8186 O   0  0  0  0  0  0  0  0  0  0  0  0
   -1.5178   -1.5878   -0.9581 C   0  0  0  0  0  0  0  0  0  0  0  0
   -0.7930   -0.6890    0.0667 C   0  0  0  0  0  0  0  0  0  0  0  0
   -1.6203    0.5591    0.3778 C   0  0  0  0  0  0  0  0  0  0  0  0
   -1.7112    1.6317   -0.5228 C   0  0  0  0  0  0  0  0  0  0  0  0
   -2.4750    2.7590   -0.2128 C   0  0  0  0  0  0  0  0  0  0  0  0
   -3.1660    2.8264    0.9943 C   0  0  0  0  0  0  0  0  0  0  0  0
   -3.1006    1.7634    1.8909 C   0  0  0  0  0  0  0  0  0  0  0  0
   -2.3363    0.6363    1.5846 C   0  0  0  0  0  0  0  0  0  0  0  0
    0.6733   -0.3510   -0.2285 C   0  0  0  0  0  0  0  0  0  0  0  0
    1.6013   -0.2132    0.7420 C   0  0  0  0  0  0  0  0  0  0  0  0
    1.3252   -0.2743    2.0935 O   0  0  0  0  0  0  0  0  0  0  0  0
    3.0103    0.0236    0.4267 C   0  0  0  0  0  0  0  0  0  0  0  0
    4.0084    0.1520    1.4009 C   0  0  0  0  0  0  0  0  0  0  0  0
    5.3401    0.3762    1.0334 C   0  0  0  0  0  0  0  0  0  0  0  0
    5.6893    0.4737   -0.3133 C   0  0  0  0  0  0  0  0  0  0  0  0
    4.7067    0.3471   -1.2917 C   0  0  0  0  0  0  0  0  0  0  0  0
    3.3847    0.1246   -0.9055 C   0  0  0  0  0  0  0  0  0  0  0  0
    2.4315    0.0111   -1.9258 O   0  0  0  0  0  0  0  0  0  0  0  0
    1.0879   -0.1953   -1.6517 C   0  0  0  0  0  0  0  0  0  0  0  0
    0.2797   -0.2404   -2.5736 O   0  0  0  0  0  0  0  0  0  0  0  0
  1  2  1  0
  2  3  2  0
  2  4  1  0
  4  5  1  0
  5  6  1  0
  6  7  2  0
  7  8  1  0
  8  9  2  0
  9 10  1  0
 10 11  2  0
  5 12  1  0
 12 13  2  0
 13 14  1  0
 13 15  1  0
 15 16  2  0
 16 17  1  0
 17 18  2  0
 18 19  1  0
 19 20  2  0
 20 21  1  0
 21 22  1  0
 22 23  2  0
 11  6  1  0
 20 15  1  0
 22 12  1  0
M  END
>  <target>  (562) 
-3.8930000000000002

$$$$

     RDKit          3D

 16 17  0  0  0  0  0  0  0  0999 V2000
   -1.6683   -0.3142    1.0119 C   0  0  0  0  0  0  0  0  0  0  0  0
   -2.3198    0.5959    1.8455 C   0  0  0  0  0  0  0  0  0  0  0  0
   -2.9933    1.6851    1.2977 C   0  0  0  0  0  0  0  0  0  0  0  0
   -3.0169    1.8646   -0.0837 C   0  0  0  0  0  0  0  0  0  0  0  0
   -2.3627    0.9564   -0.9185 C   0  0  0  0  0  0  0  0  0  0  0  0
   -1.6790   -0.1458   -0.3806 C   0  0  0  0  0  0  0  0  0  0  0  0
   -0.9323   -1.0913   -1.2966 C   0  0  0  0  0  0  0  0  0  0  0  0
   -0.8708   -2.4177   -0.7489 O   0  0  0  0  0  0  0  0  0  0  0  0
    0.4897   -0.5957   -1.6885 C   0  0  0  0  0  0  0  0  0  0  0  0
    1.0990   -1.5921   -2.5322 O   0  0  0  0  0  0  0  0  0  0  0  0
    1.4235   -0.2876   -0.5317 C   0  0  0  0  0  0  0  0  0  0  0  0
    1.7244    1.0453   -0.2107 C   0  0  0  0  0  0  0  0  0  0  0  0
    2.5650    1.3468    0.8622 C   0  0  0  0  0  0  0  0  0  0  0  0
    3.1163    0.3215    1.6269 C   0  0  0  0  0  0  0  0  0  0  0  0
    2.8260   -1.0060    1.3216 C   0  0  0  0  0  0  0  0  0  0  0  0
    1.9844   -1.3094    0.2502 C   0  0  0  0  0  0  0  0  0  0  0  0
  1  2  2  0
  2  3  1  0
  3  4  2  0
  4  5  1  0
  5  6  2  0
  6  7  1  0
  7  8  1  0
  7  9  1  0
  9 10  1  0
  9 11  1  0
 11 12  2  0
 12 13  1  0
 13 14  2  0
 14 15  1  0
 15 16  2  0
  6  1  1  0
 16 11  1  0
M  END
>  <target>  (563) 
-1.93

$$$$

     RDKit          3D

 14 14  0  0  0  0  0  0  0  0999 V2000
    2.7093    1.4944    0.8016 C   0  0  0  0  0  0  0  0  0  0  0  0
    1.7303    0.6774    0.1594 O   0  0  0  0  0  0  0  0  0  0  0  0
    1.1885   -0.2659    0.9672 C   0  0  0  0  0  0  0  0  0  0  0  0
    1.4929   -0.5000    2.1246 O   0  0  0  0  0  0  0  0  0  0  0  0
    0.2251   -1.0753    0.1954 C   0  0  0  0  0  0  0  0  0  0  0  0
    0.3227   -2.4698    0.3185 C   0  0  0  0  0  0  0  0  0  0  0  0
   -0.5108   -3.3018   -0.4312 C   0  0  0  0  0  0  0  0  0  0  0  0
   -1.4445   -2.7487   -1.3066 C   0  0  0  0  0  0  0  0  0  0  0  0
   -1.5610   -1.3620   -1.4190 C   0  0  0  0  0  0  0  0  0  0  0  0
   -0.7405   -0.5195   -0.6534 C   0  0  0  0  0  0  0  0  0  0  0  0
   -0.9728    0.9331   -0.7756 C   0  0  0  0  0  0  0  0  0  0  0  0
   -1.1701    1.4987   -1.8378 O   0  0  0  0  0  0  0  0  0  0  0  0
   -1.0320    1.4834    0.4612 O   0  0  0  0  0  0  0  0  0  0  0  0
   -1.2933    2.8870    0.4568 C   0  0  0  0  0  0  0  0  0  0  0  0
  1  2  1  0
  2  3  1  0
  3  4  2  0
  3  5  1  0
  5  6  2  0
  6  7  1  0
  7  8  2  0
  8  9  1  0
  9 10  2  0
 10 11  1  0
 11 12  2  0
 11 13  1  0
 13 14  1  0
 10  5  1  0
M  END
>  <target>  (564) 
-1.66

$$$$

     RDKit          3D

 12 11  0  0  0  0  0  0  0  0999 V2000
   -4.9665    1.1501    0.1341 C   0  0  0  0  0  0  0  0  0  0  0  0
   -4.2407   -0.1832    0.0485 C   0  0  0  0  0  0  0  0  0  0  0  0
   -2.7228    0.0027    0.0717 C   0  0  0  0  0  0  0  0  0  0  0  0
   -1.9991   -1.3432   -0.0111 C   0  0  0  0  0  0  0  0  0  0  0  0
   -0.4762   -1.2094   -0.1083 C   0  0  0  0  0  0  0  0  0  0  0  0
    0.1643   -0.6330    1.1591 C   0  0  0  0  0  0  0  0  0  0  0  0
    1.6921   -0.6328    1.0897 C   0  0  0  0  0  0  0  0  0  0  0  0
    2.2424    0.3991    0.1315 C   0  0  0  0  0  0  0  0  0  0  0  0
    1.6189    1.3433   -0.3315 O   0  0  0  0  0  0  0  0  0  0  0  0
    3.5567    0.1325   -0.1156 O   0  0  0  0  0  0  0  0  0  0  0  0
    4.1868    1.0624   -1.0049 C   0  0  0  0  0  0  0  0  0  0  0  0
    5.6301    0.6363   -1.1905 C   0  0  0  0  0  0  0  0  0  0  0  0
  1  2  1  0
  2  3  1  0
  3  4  1  0
  4  5  1  0
  5  6  1  0
  6  7  1  0
  7  8  1  0
  8  9  2  0
  8 10  1  0
 10 11  1  0
 11 12  1  0
M  END
>  <target>  (565) 
-3.39

$$$$

     RDKit          3D

  6  5  0  0  0  0  0  0  0  0999 V2000
    2.7996    0.2493   -0.3660 C   0  0  0  0  0  0  0  0  0  0  0  0
    1.7421   -0.7078    0.1551 C   0  0  0  0  0  0  0  0  0  0  0  0
    0.6073    0.0845    1.3431 S   0  0  0  0  0  0  0  0  0  0  0  0
   -0.4519    1.4086    0.1749 S   0  0  0  0  0  0  0  0  0  0  0  0
   -1.7767    0.3750   -0.5345 C   0  0  0  0  0  0  0  0  0  0  0  0
   -2.7819   -0.0792    0.5091 C   0  0  0  0  0  0  0  0  0  0  0  0
  1  2  1  0
  2  3  1  0
  3  4  1  0
  4  5  1  0
  5  6  1  0
M  END
>  <target>  (566) 
-2.42

$$$$

     RDKit          3D

  8  7  0  0  0  0  0  0  0  0999 V2000
    4.0007    0.3346   -0.4719 C   0  0  0  0  0  0  0  0  0  0  0  0
    2.8909   -0.3906    0.2629 C   0  0  0  0  0  0  0  0  0  0  0  0
    1.6407    0.0440   -0.2673 O   0  0  0  0  0  0  0  0  0  0  0  0
    0.5444   -0.6010    0.3810 C   0  0  0  0  0  0  0  0  0  0  0  0
   -0.7646   -0.1011   -0.2208 C   0  0  0  0  0  0  0  0  0  0  0  0
   -1.8578   -0.7511    0.4273 O   0  0  0  0  0  0  0  0  0  0  0  0
   -3.1269   -0.3838   -0.1096 C   0  0  0  0  0  0  0  0  0  0  0  0
   -3.5947    0.9553    0.4319 C   0  0  0  0  0  0  0  0  0  0  0  0
  1  2  1  0
  2  3  1  0
  3  4  1  0
  4  5  1  0
  5  6  1  0
  6  7  1  0
  7  8  1  0
M  END
>  <target>  (567) 
-0.77

$$$$

     RDKit          3D

 10 10  0  0  0  0  0  0  0  0999 V2000
    2.6196   -1.7031    0.0770 Cl  0  0  0  0  0  0  0  0  0  0  0  0
    1.1548   -0.7889    0.0344 C   0  0  0  0  0  0  0  0  0  0  0  0
    1.2596    0.6048    0.0203 C   0  0  0  0  0  0  0  0  0  0  0  0
    0.1070    1.3948   -0.0141 C   0  0  0  0  0  0  0  0  0  0  0  0
    0.3103    3.1099   -0.0299 Cl  0  0  0  0  0  0  0  0  0  0  0  0
   -1.1548    0.7889   -0.0344 C   0  0  0  0  0  0  0  0  0  0  0  0
   -2.6196    1.7031   -0.0770 Cl  0  0  0  0  0  0  0  0  0  0  0  0
   -1.2596   -0.6048   -0.0203 C   0  0  0  0  0  0  0  0  0  0  0  0
   -0.1070   -1.3948    0.0141 C   0  0  0  0  0  0  0  0  0  0  0  0
   -0.3103   -3.1099    0.0299 Cl  0  0  0  0  0  0  0  0  0  0  0  0
  1  2  1  0
  2  3  2  0
  3  4  1  0
  4  5  1  0
  4  6  2  0
  6  7  1  0
  6  8  1  0
  8  9  2  0
  9 10  1  0
  9  2  1  0
M  END
>  <target>  (568) 
-5.56

$$$$

     RDKit          3D

 14 15  0  0  0  0  0  0  0  0999 V2000
    4.9391   -0.3166    0.5626 N   0  0  0  0  0  0  0  0  0  0  0  0
    3.5465   -0.1820    0.4840 C   0  0  0  0  0  0  0  0  0  0  0  0
    2.7097   -1.1887    0.9665 C   0  0  0  0  0  0  0  0  0  0  0  0
    1.3205   -1.1173    0.7884 C   0  0  0  0  0  0  0  0  0  0  0  0
    0.7311   -0.0572    0.0825 C   0  0  0  0  0  0  0  0  0  0  0  0
    1.5876    0.9171   -0.4528 C   0  0  0  0  0  0  0  0  0  0  0  0
    2.9763    0.8431   -0.2713 C   0  0  0  0  0  0  0  0  0  0  0  0
   -0.7300    0.0192   -0.1065 C   0  0  0  0  0  0  0  0  0  0  0  0
   -1.2929    0.1760   -1.3824 C   0  0  0  0  0  0  0  0  0  0  0  0
   -2.6822    0.2478   -1.5603 C   0  0  0  0  0  0  0  0  0  0  0  0
   -3.5474    0.2098   -0.4665 C   0  0  0  0  0  0  0  0  0  0  0  0
   -4.9347    0.1646   -0.6586 N   0  0  0  0  0  0  0  0  0  0  0  0
   -3.0008   -0.0074    0.7987 C   0  0  0  0  0  0  0  0  0  0  0  0
   -1.6121   -0.0812    0.9803 C   0  0  0  0  0  0  0  0  0  0  0  0
  1  2  1  0
  2  3  2  0
  3  4  1  0
  4  5  2  0
  5  6  1  0
  6  7  2  0
  5  8  1  0
  8  9  2  0
  9 10  1  0
 10 11  2  0
 11 12  1  0
 11 13  1  0
 13 14  2  0
  7  2  1  0
 14  8  1  0
M  END
>  <target>  (569) 
-2.7

$$$$

     RDKit          3D

  7  6  0  0  0  0  0  0  0  0999 V2000
   -3.4562    0.0893    0.0105 C   0  0  0  0  0  0  0  0  0  0  0  0
   -2.1168   -0.5343   -0.3481 C   0  0  0  0  0  0  0  0  0  0  0  0
   -0.9519    0.3649    0.0651 C   0  0  0  0  0  0  0  0  0  0  0  0
    0.3941   -0.2661   -0.2973 C   0  0  0  0  0  0  0  0  0  0  0  0
    1.5591    0.6353    0.1164 C   0  0  0  0  0  0  0  0  0  0  0  0
    2.8800    0.0224   -0.2506 C   0  0  0  0  0  0  0  0  0  0  0  0
    3.8235   -0.3153    0.6373 C   0  0  0  0  0  0  0  0  0  0  0  0
  1  2  1  0
  2  3  1  0
  3  4  1  0
  4  5  1  0
  5  6  1  0
  6  7  2  0
M  END
>  <target>  (570) 
-3.73

$$$$

     RDKit          3D

 15 15  0  0  0  0  0  0  0  0999 V2000
   -5.0919    1.4294    0.7239 C   0  0  0  0  0  0  0  0  0  0  0  0
   -4.2927    0.6929   -0.3392 C   0  0  0  0  0  0  0  0  0  0  0  0
   -2.7980    0.6943   -0.0177 C   0  0  0  0  0  0  0  0  0  0  0  0
   -1.9990   -0.0495   -1.0916 C   0  0  0  0  0  0  0  0  0  0  0  0
   -0.5253   -0.0589   -0.7864 C   0  0  0  0  0  0  0  0  0  0  0  0
    0.1722   -1.0411   -0.1824 C   0  0  0  0  0  0  0  0  0  0  0  0
   -0.4668   -2.2964    0.3543 C   0  0  0  0  0  0  0  0  0  0  0  0
    1.5316   -0.9990    0.0299 N   0  0  0  0  0  0  0  0  0  0  0  0
    2.1963    0.0422   -0.3547 C   0  0  0  0  0  0  0  0  0  0  0  0
    3.5451    0.1713   -0.1817 N   0  0  0  0  0  0  0  0  0  0  0  0
    4.2928   -0.7591    0.6463 C   0  0  0  0  0  0  0  0  0  0  0  0
    5.7813   -0.4872    0.5132 C   0  0  0  0  0  0  0  0  0  0  0  0
    1.5852    1.0929   -0.9649 N   0  0  0  0  0  0  0  0  0  0  0  0
    0.2527    1.1199   -1.2397 C   0  0  0  0  0  0  0  0  0  0  0  0
   -0.2618    2.0675   -1.8256 O   0  0  0  0  0  0  0  0  0  0  0  0
  1  2  1  0
  2  3  1  0
  3  4  1  0
  4  5  1  0
  5  6  2  0
  6  7  1  0
  6  8  1  0
  8  9  2  0
  9 10  1  0
 10 11  1  0
 11 12  1  0
  9 13  1  0
 13 14  1  0
 14 15  2  0
 14  5  1  0
M  END
>  <target>  (571) 
-3.028

$$$$

     RDKit          3D

 16 16  0  0  0  0  0  0  0  0999 V2000
   -2.1193   -0.4384    1.9917 O   0  0  0  0  0  0  0  0  0  0  0  0
   -2.0863    0.2995    1.0096 C   0  0  0  0  0  0  0  0  0  0  0  0
   -3.1652    1.0865    0.7172 N   0  0  0  0  0  0  0  0  0  0  0  0
   -3.0644    2.2817    0.0796 C   0  0  0  0  0  0  0  0  0  0  0  0
   -3.8976    3.1668    0.2433 O   0  0  0  0  0  0  0  0  0  0  0  0
   -1.9522    2.4855   -0.6739 N   0  0  0  0  0  0  0  0  0  0  0  0
   -0.7800    1.8026   -0.4930 C   0  0  0  0  0  0  0  0  0  0  0  0
    0.2816    2.3403   -0.7947 O   0  0  0  0  0  0  0  0  0  0  0  0
   -0.9150    0.3665    0.0218 C   0  0  0  0  0  0  0  0  0  0  0  0
   -1.3321   -0.4929   -1.2144 C   0  0  0  0  0  0  0  0  0  0  0  0
   -1.4987   -1.9863   -0.9479 C   0  0  0  0  0  0  0  0  0  0  0  0
    0.4028   -0.1413    0.7212 C   0  0  0  0  0  0  0  0  0  0  0  0
    0.8374    0.7921    1.8700 C   0  0  0  0  0  0  0  0  0  0  0  0
    1.5872   -0.4027   -0.2467 C   0  0  0  0  0  0  0  0  0  0  0  0
    2.7915   -1.0706    0.4292 C   0  0  0  0  0  0  0  0  0  0  0  0
    3.8645   -1.4367   -0.5859 C   0  0  0  0  0  0  0  0  0  0  0  0
  1  2  2  0
  2  3  1  0
  3  4  1  0
  4  5  2  0
  4  6  1  0
  6  7  1  0
  7  8  2  0
  7  9  1  0
  9 10  1  0
 10 11  1  0
  9 12  1  0
 12 13  1  0
 12 14  1  0
 14 15  1  0
 15 16  1  0
  9  2  1  0
M  END
>  <target>  (572) 
-2.39

$$$$

     RDKit          3D

  8  8  0  0  0  0  0  0  0  0999 V2000
   -2.1259   -0.9059   -0.1282 N   0  0  0  0  0  0  0  0  0  0  0  0
   -0.8395   -0.3514    0.0080 C   0  0  0  0  0  0  0  0  0  0  0  0
    0.2392   -1.1974    0.2905 C   0  0  0  0  0  0  0  0  0  0  0  0
    1.5481   -0.7065    0.3159 C   0  0  0  0  0  0  0  0  0  0  0  0
    1.7999    0.6320    0.0218 C   0  0  0  0  0  0  0  0  0  0  0  0
    0.7439    1.4784   -0.3123 C   0  0  0  0  0  0  0  0  0  0  0  0
   -0.5631    0.9843   -0.3373 C   0  0  0  0  0  0  0  0  0  0  0  0
   -1.8425    2.0662   -0.7699 Cl  0  0  0  0  0  0  0  0  0  0  0  0
  1  2  1  0
  2  3  2  0
  3  4  1  0
  4  5  2  0
  5  6  1  0
  6  7  2  0
  7  8  1  0
  7  2  1  0
M  END
>  <target>  (573) 
-1.52

$$$$

     RDKit          3D

  9  9  0  0  0  0  0  0  0  0999 V2000
    2.6827    0.3666    0.1365 C   0  0  0  0  0  0  0  0  0  0  0  0
    1.7584   -0.7082    0.2536 O   0  0  0  0  0  0  0  0  0  0  0  0
    0.4301   -0.3974    0.1533 C   0  0  0  0  0  0  0  0  0  0  0  0
   -0.4344   -1.4903    0.2756 C   0  0  0  0  0  0  0  0  0  0  0  0
   -1.8176   -1.3200    0.1934 C   0  0  0  0  0  0  0  0  0  0  0  0
   -2.3463   -0.0480   -0.0127 C   0  0  0  0  0  0  0  0  0  0  0  0
   -1.4863    1.0420   -0.1348 C   0  0  0  0  0  0  0  0  0  0  0  0
   -2.1404    2.6149   -0.3897 Cl  0  0  0  0  0  0  0  0  0  0  0  0
   -0.1017    0.8757   -0.0531 C   0  0  0  0  0  0  0  0  0  0  0  0
  1  2  1  0
  2  3  1  0
  3  4  2  0
  4  5  1  0
  5  6  2  0
  6  7  1  0
  7  8  1  0
  7  9  2  0
  9  3  1  0
M  END
>  <target>  (574) 
-2.78

$$$$

     RDKit          3D

 13 12  0  0  0  0  0  0  0  0999 V2000
   -3.7464    2.4861    0.4246 C   0  0  0  0  0  0  0  0  0  0  0  0
   -3.1060    1.1403    0.1214 C   0  0  0  0  0  0  0  0  0  0  0  0
   -2.4221    0.5563    1.3583 C   0  0  0  0  0  0  0  0  0  0  0  0
   -1.8409   -0.8421    1.1215 C   0  0  0  0  0  0  0  0  0  0  0  0
   -0.7394   -0.8568    0.1589 N   0  0  0  0  0  0  0  0  0  0  0  0
   -1.0329   -1.3890   -1.1768 C   0  0  0  0  0  0  0  0  0  0  0  0
   -0.8556   -2.8987   -1.2388 C   0  0  0  0  0  0  0  0  0  0  0  0
    0.5170   -0.4667    0.6225 C   0  0  0  0  0  0  0  0  0  0  0  0
    0.7168   -0.0801    1.7695 O   0  0  0  0  0  0  0  0  0  0  0  0
    1.8461   -0.5512   -0.5276 S   0  0  0  0  0  0  0  0  0  0  0  0
    3.1952    0.0739    0.5188 C   0  0  0  0  0  0  0  0  0  0  0  0
    4.5294    0.1208   -0.2270 C   0  0  0  0  0  0  0  0  0  0  0  0
    4.5778    1.1618   -1.3376 C   0  0  0  0  0  0  0  0  0  0  0  0
  1  2  1  0
  2  3  1  0
  3  4  1  0
  4  5  1  0
  5  6  1  0
  6  7  1  0
  5  8  1  0
  8  9  2  0
  8 10  1  0
 10 11  1  0
 11 12  1  0
 12 13  1  0
M  END
>  <target>  (575) 
-3.53

$$$$

     RDKit          3D

  7  6  0  0  0  0  0  0  0  0999 V2000
   -2.7080    0.0835    0.3585 C   0  0  0  0  0  0  0  0  0  0  0  0
   -1.4459   -0.1010   -0.4687 C   0  0  0  0  0  0  0  0  0  0  0  0
   -0.1901    0.1061    0.3733 C   0  0  0  0  0  0  0  0  0  0  0  0
    1.0785   -0.0780   -0.4525 C   0  0  0  0  0  0  0  0  0  0  0  0
    2.2050    0.1328    0.4092 O   0  0  0  0  0  0  0  0  0  0  0  0
    3.4049   -0.0028   -0.2072 C   0  0  0  0  0  0  0  0  0  0  0  0
    3.5946   -0.2768   -1.3810 O   0  0  0  0  0  0  0  0  0  0  0  0
  1  2  1  0
  2  3  1  0
  3  4  1  0
  4  5  1  0
  5  6  1  0
  6  7  2  0
M  END
>  <target>  (576) 
-1.37

$$$$

     RDKit          3D

 26 29  0  0  0  0  0  0  0  0999 V2000
    2.4641   -1.7676   -1.5337 C   0  0  0  0  0  0  0  0  0  0  0  0
    1.6342   -0.8843   -0.5472 C   0  0  0  0  0  0  0  0  0  0  0  0
    0.7332   -1.8684    0.2321 C   0  0  0  0  0  0  0  0  0  0  0  0
   -0.4882   -1.2830    0.9272 C   0  0  0  0  0  0  0  0  0  0  0  0
   -0.0462   -0.5775    2.0798 O   0  0  0  0  0  0  0  0  0  0  0  0
   -1.3282   -0.4091   -0.0303 C   0  0  0  0  0  0  0  0  0  0  0  0
   -0.4579    0.7066   -0.6870 C   0  0  0  0  0  0  0  0  0  0  0  0
   -1.2908    1.5054   -1.7181 C   0  0  0  0  0  0  0  0  0  0  0  0
   -2.5763    2.0670   -1.1250 C   0  0  0  0  0  0  0  0  0  0  0  0
   -3.3794    0.9548   -0.5066 C   0  0  0  0  0  0  0  0  0  0  0  0
   -4.6166    0.6790   -0.9558 C   0  0  0  0  0  0  0  0  0  0  0  0
   -5.4053   -0.4489   -0.4220 C   0  0  0  0  0  0  0  0  0  0  0  0
   -6.5289   -0.6974   -0.8400 O   0  0  0  0  0  0  0  0  0  0  0  0
   -4.7805   -1.2704    0.6303 C   0  0  0  0  0  0  0  0  0  0  0  0
   -3.5493   -0.9949    1.0800 C   0  0  0  0  0  0  0  0  0  0  0  0
   -2.6683    0.1526    0.5912 C   0  0  0  0  0  0  0  0  0  0  0  0
   -2.4557    1.0756    1.8120 C   0  0  0  0  0  0  0  0  0  0  0  0
    0.8126    0.1342   -1.3827 C   0  0  0  0  0  0  0  0  0  0  0  0
    1.8361    1.2468   -1.7219 C   0  0  0  0  0  0  0  0  0  0  0  0
    3.0370    1.0687   -0.7817 C   0  0  0  0  0  0  0  0  0  0  0  0
    2.5767    0.0598    0.2785 C   0  0  0  0  0  0  0  0  0  0  0  0
    1.9132    0.8471    1.2660 O   0  0  0  0  0  0  0  0  0  0  0  0
    3.7391   -0.6353    1.0079 C   0  0  0  0  0  0  0  0  0  0  0  0
    3.7133   -1.8317    1.3174 O   0  0  0  0  0  0  0  0  0  0  0  0
    4.9030    0.2394    1.4668 C   0  0  0  0  0  0  0  0  0  0  0  0
    5.9540   -0.5441    2.0210 O   0  0  0  0  0  0  0  0  0  0  0  0
  1  2  1  0
  2  3  1  0
  3  4  1  0
  4  5  1  0
  4  6  1  0
  6  7  1  0
  7  8  1  0
  8  9  1  0
  9 10  1  0
 10 11  2  0
 11 12  1  0
 12 13  2  0
 12 14  1  0
 14 15  2  0
 15 16  1  0
 16 17  1  0
  7 18  1  0
 18 19  1  0
 19 20  1  0
 20 21  1  0
 21 22  1  0
 21 23  1  0
 23 24  2  0
 23 25  1  0
 25 26  1  0
 21  2  1  0
 18  2  1  0
 16  6  1  0
 16 10  1  0
M  END
>  <target>  (577) 
-3.18

$$$$

     RDKit          3D

  4  3  0  0  0  0  0  0  0  0999 V2000
    1.8195   -0.1053   -0.3689 Br  0  0  0  0  0  0  0  0  0  0  0  0
   -0.0531    0.0005    0.1269 C   0  0  0  0  0  0  0  0  0  0  0  0
   -0.9233   -1.3922   -0.5204 Cl  0  0  0  0  0  0  0  0  0  0  0  0
   -0.7419    1.5176   -0.4562 Cl  0  0  0  0  0  0  0  0  0  0  0  0
  1  2  1  0
  2  3  1  0
  2  4  1  0
M  END
>  <target>  (578) 
-1.54

$$$$

     RDKit          3D

 22 25  0  0  0  0  0  0  0  0999 V2000
   -3.2932   -1.5752   -1.5633 C   0  0  0  0  0  0  0  0  0  0  0  0
   -2.5234   -0.9794   -0.3812 C   0  0  0  0  0  0  0  0  0  0  0  0
   -1.4818   -1.9620    0.1654 C   0  0  0  0  0  0  0  0  0  0  0  0
   -0.1459   -1.7500   -0.4980 C   0  0  0  0  0  0  0  0  0  0  0  0
    0.4365   -2.6847   -1.0460 O   0  0  0  0  0  0  0  0  0  0  0  0
    0.4464   -0.3408   -0.4584 C   0  0  0  0  0  0  0  0  0  0  0  0
   -0.6215    0.6717    0.0440 C   0  0  0  0  0  0  0  0  0  0  0  0
   -0.0684    2.0939   -0.1110 C   0  0  0  0  0  0  0  0  0  0  0  0
    1.2200    2.2627    0.6895 C   0  0  0  0  0  0  0  0  0  0  0  0
    2.2599    1.2263    0.3345 C   0  0  0  0  0  0  0  0  0  0  0  0
    3.5172    1.6241    0.0707 C   0  0  0  0  0  0  0  0  0  0  0  0
    4.6088    0.6574   -0.1814 C   0  0  0  0  0  0  0  0  0  0  0  0
    5.7329    1.0758   -0.4437 O   0  0  0  0  0  0  0  0  0  0  0  0
    4.3094   -0.8070   -0.0186 C   0  0  0  0  0  0  0  0  0  0  0  0
    2.8746   -1.1074   -0.4279 C   0  0  0  0  0  0  0  0  0  0  0  0
    1.8085   -0.2431    0.3099 C   0  0  0  0  0  0  0  0  0  0  0  0
    1.6748   -0.7431    1.7653 C   0  0  0  0  0  0  0  0  0  0  0  0
   -1.9445    0.4266   -0.7267 C   0  0  0  0  0  0  0  0  0  0  0  0
   -3.0917    1.3890   -0.3865 C   0  0  0  0  0  0  0  0  0  0  0  0
   -3.7142    0.8475    0.8886 C   0  0  0  0  0  0  0  0  0  0  0  0
   -3.5070   -0.6338    0.7307 C   0  0  0  0  0  0  0  0  0  0  0  0
   -4.0466   -1.4674    1.4477 O   0  0  0  0  0  0  0  0  0  0  0  0
  1  2  1  0
  2  3  1  0
  3  4  1  0
  4  5  2  0
  4  6  1  0
  6  7  1  0
  7  8  1  0
  8  9  1  0
  9 10  1  0
 10 11  2  0
 11 12  1  0
 12 13  2  0
 12 14  1  0
 14 15  1  0
 15 16  1  0
 16 17  1  0
  7 18  1  0
 18 19  1  0
 19 20  1  0
 20 21  1  0
 21 22  2  0
 16  6  1  0
 16 10  1  0
 18  2  1  0
 21  2  1  0
M  END
>  <target>  (579) 
-3.48

$$$$

     RDKit          3D

 18 20  0  0  0  0  0  0  0  0999 V2000
   -5.7140    0.0559    0.1701 C   0  0  0  0  0  0  0  0  0  0  0  0
   -4.9977    1.1000    0.7495 C   0  0  0  0  0  0  0  0  0  0  0  0
   -3.6007    1.0983    0.7070 C   0  0  0  0  0  0  0  0  0  0  0  0
   -2.8956    0.0534    0.0863 C   0  0  0  0  0  0  0  0  0  0  0  0
   -3.6382   -0.9901   -0.4912 C   0  0  0  0  0  0  0  0  0  0  0  0
   -5.0352   -0.9895   -0.4507 C   0  0  0  0  0  0  0  0  0  0  0  0
   -1.4242    0.0521    0.0426 C   0  0  0  0  0  0  0  0  0  0  0  0
   -0.6864   -1.0469    0.5060 C   0  0  0  0  0  0  0  0  0  0  0  0
    0.7134   -1.0476    0.4655 C   0  0  0  0  0  0  0  0  0  0  0  0
    1.4242    0.0496   -0.0423 C   0  0  0  0  0  0  0  0  0  0  0  0
    0.6864    1.1481   -0.5069 C   0  0  0  0  0  0  0  0  0  0  0  0
   -0.7134    1.1499   -0.4640 C   0  0  0  0  0  0  0  0  0  0  0  0
    2.8956    0.0482   -0.0862 C   0  0  0  0  0  0  0  0  0  0  0  0
    3.5846    0.3062   -1.2832 C   0  0  0  0  0  0  0  0  0  0  0  0
    4.9815    0.3045   -1.3260 C   0  0  0  0  0  0  0  0  0  0  0  0
    5.7140    0.0456   -0.1704 C   0  0  0  0  0  0  0  0  0  0  0  0
    5.0513   -0.2120    1.0268 C   0  0  0  0  0  0  0  0  0  0  0  0
    3.6543   -0.2111    1.0675 C   0  0  0  0  0  0  0  0  0  0  0  0
  1  2  2  0
  2  3  1  0
  3  4  2  0
  4  5  1  0
  5  6  2  0
  4  7  1  0
  7  8  2  0
  8  9  1  0
  9 10  2  0
 10 11  1  0
 11 12  2  0
 10 13  1  0
 13 14  2  0
 14 15  1  0
 15 16  2  0
 16 17  1  0
 17 18  2  0
  6  1  1  0
 12  7  1  0
 18 13  1  0
M  END
>  <target>  (580) 
-7.11

$$$$

     RDKit          3D

  9  9  0  0  0  0  0  0  0  0999 V2000
    2.9589    0.2267    0.5887 O   0  0  0  0  0  0  0  0  0  0  0  0
    1.6182    0.1233    0.3657 C   0  0  0  0  0  0  0  0  0  0  0  0
    0.8247    1.2214    0.6856 C   0  0  0  0  0  0  0  0  0  0  0  0
   -0.5541    1.1655    0.4759 C   0  0  0  0  0  0  0  0  0  0  0  0
   -1.1226    0.0036   -0.0545 C   0  0  0  0  0  0  0  0  0  0  0  0
   -2.5814   -0.0529   -0.2753 C   0  0  0  0  0  0  0  0  0  0  0  0
   -3.1323   -1.0446   -0.7369 O   0  0  0  0  0  0  0  0  0  0  0  0
   -0.3201   -1.0972   -0.3742 C   0  0  0  0  0  0  0  0  0  0  0  0
    1.0589   -1.0371   -0.1628 C   0  0  0  0  0  0  0  0  0  0  0  0
  1  2  1  0
  2  3  2  0
  3  4  1  0
  4  5  2  0
  5  6  1  0
  6  7  2  0
  5  8  1  0
  8  9  2  0
  9  2  1  0
M  END
>  <target>  (581) 
-0.96

$$$$

     RDKit          3D

  2  1  0  0  0  0  0  0  0  0999 V2000
   -0.1837    0.0001   -0.0077 C   0  0  0  0  0  0  0  0  0  0  0  0
    1.7495   -0.0010    0.0732 Br  0  0  0  0  0  0  0  0  0  0  0  0
  1  2  1  0
M  END
>  <target>  (582) 
-0.79

$$$$

     RDKit          3D

 24 25  0  0  0  0  0  0  0  0999 V2000
   -1.5962   -2.8955    0.8869 C   0  0  0  0  0  0  0  0  0  0  0  0
   -0.4919   -2.2402    0.1051 C   0  0  0  0  0  0  0  0  0  0  0  0
   -0.7569   -1.8019   -1.2004 C   0  0  0  0  0  0  0  0  0  0  0  0
    0.2346   -1.1210   -1.9139 C   0  0  0  0  0  0  0  0  0  0  0  0
    1.5384   -1.0207   -1.4264 C   0  0  0  0  0  0  0  0  0  0  0  0
    1.8008   -1.4449   -0.1290 C   0  0  0  0  0  0  0  0  0  0  0  0
    0.7689   -1.9578    0.6641 C   0  0  0  0  0  0  0  0  0  0  0  0
    0.9629   -2.0303    2.0777 N   0  0  0  0  0  0  0  0  0  0  0  0
    1.2137   -0.5434    2.9083 S   0  0  0  0  0  0  0  0  0  0  0  0
    1.0094   -0.9022    4.3038 O   0  0  0  0  0  0  0  0  0  0  0  0
    2.5076   -0.0298    2.4918 O   0  0  0  0  0  0  0  0  0  0  0  0
   -0.1562    0.6058    2.3373 C   0  0  0  0  0  0  0  0  0  0  0  0
   -0.2334    1.7344    3.0954 F   0  0  0  0  0  0  0  0  0  0  0  0
   -1.3733   -0.0072    2.4135 F   0  0  0  0  0  0  0  0  0  0  0  0
    0.0179    0.9988    1.0499 F   0  0  0  0  0  0  0  0  0  0  0  0
   -0.2644    0.0434   -3.1853 S   0  0  0  0  0  0  0  0  0  0  0  0
   -1.6077   -0.2935   -3.6142 O   0  0  0  0  0  0  0  0  0  0  0  0
    0.8341    0.1688   -4.1225 O   0  0  0  0  0  0  0  0  0  0  0  0
   -0.3610    1.5341   -2.1967 C   0  0  0  0  0  0  0  0  0  0  0  0
   -1.3796    1.6070   -1.2384 C   0  0  0  0  0  0  0  0  0  0  0  0
   -1.2232    2.4626   -0.1495 C   0  0  0  0  0  0  0  0  0  0  0  0
   -0.1049    3.2925   -0.0687 C   0  0  0  0  0  0  0  0  0  0  0  0
    0.8473    3.2953   -1.0915 C   0  0  0  0  0  0  0  0  0  0  0  0
    0.7308    2.4045   -2.1593 C   0  0  0  0  0  0  0  0  0  0  0  0
  1  2  1  0
  2  3  2  0
  3  4  1  0
  4  5  2  0
  5  6  1  0
  6  7  2  0
  7  8  1  0
  8  9  1  0
  9 10  2  0
  9 11  2  0
  9 12  1  0
 12 13  1  0
 12 14  1  0
 12 15  1  0
  4 16  1  0
 16 17  2  0
 16 18  2  0
 16 19  1  0
 19 20  2  0
 20 21  1  0
 21 22  2  0
 22 23  1  0
 23 24  2  0
  7  2  1  0
 24 19  1  0
M  END
>  <target>  (583) 
-3.8

$$$$

     RDKit          3D

 24 26  0  0  0  0  0  0  0  0999 V2000
   -2.4067   -3.4346    1.5928 C   0  0  0  0  0  0  0  0  0  0  0  0
   -1.7791   -2.0659    1.5887 C   0  0  0  0  0  0  0  0  0  0  0  0
   -1.0572   -1.6893    2.5150 O   0  0  0  0  0  0  0  0  0  0  0  0
   -2.1122   -1.1714    0.4071 C   0  0  0  0  0  0  0  0  0  0  0  0
   -1.2273    0.0917    0.3775 C   0  0  0  0  0  0  0  0  0  0  0  0
   -1.7853    1.2470   -0.4608 C   0  0  0  0  0  0  0  0  0  0  0  0
   -1.4352    2.5659   -0.1136 C   0  0  0  0  0  0  0  0  0  0  0  0
   -1.9151    3.6533   -0.8478 C   0  0  0  0  0  0  0  0  0  0  0  0
   -2.7458    3.4347   -1.9424 C   0  0  0  0  0  0  0  0  0  0  0  0
   -3.3404    4.7718   -2.8472 Cl  0  0  0  0  0  0  0  0  0  0  0  0
   -3.0945    2.1386   -2.3109 C   0  0  0  0  0  0  0  0  0  0  0  0
   -2.6155    1.0503   -1.5751 C   0  0  0  0  0  0  0  0  0  0  0  0
    0.2325   -0.2088    0.0425 C   0  0  0  0  0  0  0  0  0  0  0  0
    1.2273   -0.1404    0.9466 C   0  0  0  0  0  0  0  0  0  0  0  0
    1.0144    0.0668    2.2951 O   0  0  0  0  0  0  0  0  0  0  0  0
    2.6270   -0.2658    0.5476 C   0  0  0  0  0  0  0  0  0  0  0  0
    3.6972   -0.1580    1.4434 C   0  0  0  0  0  0  0  0  0  0  0  0
    5.0173   -0.2623    0.9906 C   0  0  0  0  0  0  0  0  0  0  0  0
    5.2807   -0.4733   -0.3632 C   0  0  0  0  0  0  0  0  0  0  0  0
    4.2246   -0.5845   -1.2641 C   0  0  0  0  0  0  0  0  0  0  0  0
    2.9153   -0.4794   -0.7948 C   0  0  0  0  0  0  0  0  0  0  0  0
    1.8852   -0.6186   -1.7372 O   0  0  0  0  0  0  0  0  0  0  0  0
    0.5507   -0.5881   -1.3605 C   0  0  0  0  0  0  0  0  0  0  0  0
   -0.3272   -0.8992   -2.1596 O   0  0  0  0  0  0  0  0  0  0  0  0
  1  2  1  0
  2  3  2  0
  2  4  1  0
  4  5  1  0
  5  6  1  0
  6  7  2  0
  7  8  1  0
  8  9  2  0
  9 10  1  0
  9 11  1  0
 11 12  2  0
  5 13  1  0
 13 14  2  0
 14 15  1  0
 14 16  1  0
 16 17  2  0
 17 18  1  0
 18 19  2  0
 19 20  1  0
 20 21  2  0
 21 22  1  0
 22 23  1  0
 23 24  2  0
 12  6  1  0
 23 13  1  0
 21 16  1  0
M  END
>  <target>  (584) 
-5.8389999999999995

$$$$

     RDKit          3D

 12 13  0  0  0  0  0  0  0  0999 V2000
   -3.5773    0.4408   -0.0997 C   0  0  0  0  0  0  0  0  0  0  0  0
   -2.6984   -0.3567   -1.0510 C   0  0  0  0  0  0  0  0  0  0  0  0
   -1.2779   -0.4503   -0.5560 C   0  0  0  0  0  0  0  0  0  0  0  0
   -0.8822   -1.5061    0.2707 C   0  0  0  0  0  0  0  0  0  0  0  0
    0.4305   -1.5825    0.7421 C   0  0  0  0  0  0  0  0  0  0  0  0
    1.3746   -0.6021    0.4010 C   0  0  0  0  0  0  0  0  0  0  0  0
    2.6979   -0.6652    0.8674 C   0  0  0  0  0  0  0  0  0  0  0  0
    3.6244    0.3194    0.5206 C   0  0  0  0  0  0  0  0  0  0  0  0
    3.2401    1.3789   -0.2959 C   0  0  0  0  0  0  0  0  0  0  0  0
    1.9285    1.4558   -0.7675 C   0  0  0  0  0  0  0  0  0  0  0  0
    0.9840    0.4730   -0.4284 C   0  0  0  0  0  0  0  0  0  0  0  0
   -0.3403    0.5361   -0.8951 C   0  0  0  0  0  0  0  0  0  0  0  0
  1  2  1  0
  2  3  1  0
  3  4  2  0
  4  5  1  0
  5  6  2  0
  6  7  1  0
  7  8  2  0
  8  9  1  0
  9 10  2  0
 10 11  1  0
 11 12  2  0
 12  3  1  0
 11  6  1  0
M  END
>  <target>  (585) 
-4.29

$$$$

     RDKit          3D

  9  9  0  0  0  0  0  0  0  0999 V2000
   -0.8665    2.0029   -0.2943 N   0  0  0  0  0  0  0  0  0  0  0  0
    0.0229    0.9730   -0.1325 C   0  0  0  0  0  0  0  0  0  0  0  0
   -0.4485   -0.4410   -0.0341 C   0  0  0  0  0  0  0  0  0  0  0  0
   -1.8984   -0.7662   -0.1443 C   0  0  0  0  0  0  0  0  0  0  0  0
    0.5227   -1.3435    0.1304 C   0  0  0  0  0  0  0  0  0  0  0  0
    1.8239   -0.9506    0.1994 N   0  0  0  0  0  0  0  0  0  0  0  0
    2.2329    0.3560    0.1007 C   0  0  0  0  0  0  0  0  0  0  0  0
    3.4320    0.6102    0.1722 O   0  0  0  0  0  0  0  0  0  0  0  0
    1.2741    1.3202   -0.0667 N   0  0  0  0  0  0  0  0  0  0  0  0
  1  2  1  0
  2  3  1  0
  3  4  1  0
  3  5  2  0
  5  6  1  0
  6  7  1  0
  7  8  2  0
  7  9  1  0
  9  2  2  0
M  END
>  <target>  (586) 
-1.4580000000000002

$$$$

     RDKit          3D

 17 18  0  0  0  0  0  0  0  0999 V2000
    5.1838   -1.0153    0.1239 Cl  0  0  0  0  0  0  0  0  0  0  0  0
    3.4734   -0.6803    0.0830 C   0  0  0  0  0  0  0  0  0  0  0  0
    2.6289   -1.2118    1.0732 C   0  0  0  0  0  0  0  0  0  0  0  0
    3.2905   -2.2061    2.3427 Cl  0  0  0  0  0  0  0  0  0  0  0  0
    1.2471   -0.9397    1.0381 C   0  0  0  0  0  0  0  0  0  0  0  0
    0.2005   -1.6011    2.2693 Cl  0  0  0  0  0  0  0  0  0  0  0  0
    0.6890   -0.1349    0.0165 C   0  0  0  0  0  0  0  0  0  0  0  0
   -0.7597    0.1488   -0.0182 C   0  0  0  0  0  0  0  0  0  0  0  0
   -1.6396   -0.6968   -0.7132 C   0  0  0  0  0  0  0  0  0  0  0  0
   -3.0094   -0.4275   -0.7453 C   0  0  0  0  0  0  0  0  0  0  0  0
   -3.5168    0.6888   -0.0840 C   0  0  0  0  0  0  0  0  0  0  0  0
   -2.6569    1.5373    0.6099 C   0  0  0  0  0  0  0  0  0  0  0  0
   -1.2868    1.2700    0.6433 C   0  0  0  0  0  0  0  0  0  0  0  0
    1.5557    0.3908   -0.9712 C   0  0  0  0  0  0  0  0  0  0  0  0
    0.8935    1.3869   -2.2432 Cl  0  0  0  0  0  0  0  0  0  0  0  0
    2.9381    0.1214   -0.9401 C   0  0  0  0  0  0  0  0  0  0  0  0
    3.9834    0.7814   -2.1689 Cl  0  0  0  0  0  0  0  0  0  0  0  0
  1  2  1  0
  2  3  2  0
  3  4  1  0
  3  5  1  0
  5  6  1  0
  5  7  2  0
  7  8  1  0
  8  9  2  0
  9 10  1  0
 10 11  2  0
 11 12  1  0
 12 13  2  0
  7 14  1  0
 14 15  1  0
 14 16  2  0
 16 17  1  0
 13  8  1  0
 16  2  1  0
M  END
>  <target>  (587) 
-7.92

$$$$

     RDKit          3D

 16 17  0  0  0  0  0  0  0  0999 V2000
   -2.5625   -0.4375   -0.8389 C   0  0  0  0  0  0  0  0  0  0  0  0
   -1.8219    0.0211    0.2514 C   0  0  0  0  0  0  0  0  0  0  0  0
   -0.4130    0.0525    0.2900 N   0  0  0  0  0  0  0  0  0  0  0  0
    0.4637   -0.3493   -0.6983 C   0  0  0  0  0  0  0  0  0  0  0  0
    0.1950   -0.7621   -1.8190 O   0  0  0  0  0  0  0  0  0  0  0  0
    1.8942   -0.1727   -0.3505 C   0  0  0  0  0  0  0  0  0  0  0  0
    2.6297    0.6825   -1.1862 C   0  0  0  0  0  0  0  0  0  0  0  0
    3.9781    0.9304   -0.9306 C   0  0  0  0  0  0  0  0  0  0  0  0
    4.6012    0.3193    0.1548 C   0  0  0  0  0  0  0  0  0  0  0  0
    3.8814   -0.5485    0.9797 C   0  0  0  0  0  0  0  0  0  0  0  0
    2.5262   -0.8038    0.7293 C   0  0  0  0  0  0  0  0  0  0  0  0
    1.5790   -2.1865    1.9887 I   0  0  0  0  0  0  0  0  0  0  0  0
   -2.5031    0.4785    1.3874 C   0  0  0  0  0  0  0  0  0  0  0  0
   -3.8999    0.4784    1.4302 C   0  0  0  0  0  0  0  0  0  0  0  0
   -4.6291    0.0200    0.3368 C   0  0  0  0  0  0  0  0  0  0  0  0
   -3.9607   -0.4376   -0.7962 C   0  0  0  0  0  0  0  0  0  0  0  0
  1  2  2  0
  2  3  1  0
  3  4  1  0
  4  5  2  0
  4  6  1  0
  6  7  2  0
  7  8  1  0
  8  9  2  0
  9 10  1  0
 10 11  2  0
 11 12  1  0
  2 13  1  0
 13 14  2  0
 14 15  1  0
 15 16  2  0
 16  1  1  0
 11  6  1  0
M  END
>  <target>  (588) 
-4.21

$$$$

     RDKit          3D

 27 29  0  0  0  0  0  0  0  0999 V2000
   -4.9855    2.2066   -1.0742 C   0  0  0  0  0  0  0  0  0  0  0  0
   -3.7776    1.4419   -0.6081 C   0  0  0  0  0  0  0  0  0  0  0  0
   -3.8044    0.0424   -0.6173 C   0  0  0  0  0  0  0  0  0  0  0  0
   -2.7071   -0.7163   -0.1931 C   0  0  0  0  0  0  0  0  0  0  0  0
   -2.8535   -2.1145   -0.2418 N   0  0  0  0  0  0  0  0  0  0  0  0
   -1.8518   -2.8534    0.1228 C   0  0  0  0  0  0  0  0  0  0  0  0
   -1.9788   -4.3532    0.1200 C   0  0  0  0  0  0  0  0  0  0  0  0
   -2.8791   -4.9416   -0.4539 O   0  0  0  0  0  0  0  0  0  0  0  0
   -0.9524   -4.9745    0.7619 N   0  0  0  0  0  0  0  0  0  0  0  0
    0.2975   -4.4263    0.7759 C   0  0  0  0  0  0  0  0  0  0  0  0
    1.2676   -5.1708    0.6885 O   0  0  0  0  0  0  0  0  0  0  0  0
    0.4373   -3.0678    0.8696 N   0  0  0  0  0  0  0  0  0  0  0  0
   -0.5393   -2.2622    0.5799 C   0  0  0  0  0  0  0  0  0  0  0  0
   -0.4336   -0.8771    0.6679 N   0  0  0  0  0  0  0  0  0  0  0  0
    0.7550   -0.2735    1.3049 C   0  0  0  0  0  0  0  0  0  0  0  0
    1.9045   -0.0719    0.2892 C   0  0  0  0  0  0  0  0  0  0  0  0
    1.5173    0.8480   -0.7496 O   0  0  0  0  0  0  0  0  0  0  0  0
    3.1749    0.4637    0.9943 C   0  0  0  0  0  0  0  0  0  0  0  0
    2.8084    1.5779    1.8312 O   0  0  0  0  0  0  0  0  0  0  0  0
    4.2869    0.9592    0.0460 C   0  0  0  0  0  0  0  0  0  0  0  0
    3.8285    2.1256   -0.6730 O   0  0  0  0  0  0  0  0  0  0  0  0
    4.7771   -0.0756   -0.9656 C   0  0  0  0  0  0  0  0  0  0  0  0
    5.8594    0.4785   -1.7182 O   0  0  0  0  0  0  0  0  0  0  0  0
   -1.5298   -0.0796    0.2654 C   0  0  0  0  0  0  0  0  0  0  0  0
   -1.5150    1.3269    0.2669 C   0  0  0  0  0  0  0  0  0  0  0  0
   -2.6182    2.0926   -0.1598 C   0  0  0  0  0  0  0  0  0  0  0  0
   -2.5273    3.5955   -0.1317 C   0  0  0  0  0  0  0  0  0  0  0  0
  1  2  1  0
  2  3  2  0
  3  4  1  0
  4  5  1  0
  5  6  2  0
  6  7  1  0
  7  8  2  0
  7  9  1  0
  9 10  1  0
 10 11  2  0
 10 12  1  0
 12 13  2  0
 13 14  1  0
 14 15  1  0
 15 16  1  0
 16 17  1  0
 16 18  1  0
 18 19  1  0
 18 20  1  0
 20 21  1  0
 20 22  1  0
 22 23  1  0
 14 24  1  0
 24 25  1  0
 25 26  2  0
 26 27  1  0
 13  6  1  0
 24  4  2  0
 26  2  1  0
M  END
>  <target>  (589) 
-3.685

$$$$

     RDKit          3D

  8  8  0  0  0  0  0  0  0  0999 V2000
    1.8236   -1.9611   -0.0137 F   0  0  0  0  0  0  0  0  0  0  0  0
    0.8988   -0.9897   -0.0071 C   0  0  0  0  0  0  0  0  0  0  0  0
   -0.4464   -1.3494   -0.0230 C   0  0  0  0  0  0  0  0  0  0  0  0
   -1.4277   -0.3578   -0.0165 C   0  0  0  0  0  0  0  0  0  0  0  0
   -1.0580    0.9887    0.0058 C   0  0  0  0  0  0  0  0  0  0  0  0
    0.2928    1.3464    0.0217 C   0  0  0  0  0  0  0  0  0  0  0  0
    1.2724    0.3524    0.0152 C   0  0  0  0  0  0  0  0  0  0  0  0
    3.0979    0.8448    0.0368 Br  0  0  0  0  0  0  0  0  0  0  0  0
  1  2  1  0
  2  3  2  0
  3  4  1  0
  4  5  2  0
  5  6  1  0
  6  7  2  0
  7  8  1  0
  7  2  1  0
M  END
>  <target>  (590) 
-2.7

$$$$

     RDKit          3D

  9  9  0  0  0  0  0  0  0  0999 V2000
   -2.4337   -0.6455    0.1976 O   0  0  0  0  0  0  0  0  0  0  0  0
   -1.1097   -0.3264    0.0780 C   0  0  0  0  0  0  0  0  0  0  0  0
   -0.2623   -1.2995   -0.4421 C   0  0  0  0  0  0  0  0  0  0  0  0
    1.0982   -1.0220   -0.5840 C   0  0  0  0  0  0  0  0  0  0  0  0
    1.5961    0.2261   -0.2039 C   0  0  0  0  0  0  0  0  0  0  0  0
    3.2745    0.5620   -0.3814 Cl  0  0  0  0  0  0  0  0  0  0  0  0
    0.7488    1.2033    0.3177 C   0  0  0  0  0  0  0  0  0  0  0  0
   -0.6086    0.9220    0.4576 C   0  0  0  0  0  0  0  0  0  0  0  0
   -1.6629    2.1247    1.1017 Cl  0  0  0  0  0  0  0  0  0  0  0  0
  1  2  1  0
  2  3  2  0
  3  4  1  0
  4  5  2  0
  5  6  1  0
  5  7  1  0
  7  8  2  0
  8  9  1  0
  8  2  1  0
M  END
>  <target>  (591) 
-1.55

$$$$

     RDKit          3D

 26 28  0  0  0  0  0  0  0  0999 V2000
   -4.4738   -1.2924   -2.2036 C   0  0  0  0  0  0  0  0  0  0  0  0
   -3.4053   -0.7020   -1.3149 C   0  0  0  0  0  0  0  0  0  0  0  0
   -2.1051   -1.4721   -1.3583 C   0  0  0  0  0  0  0  0  0  0  0  0
   -3.7579   -0.0271    0.0019 C   0  0  0  0  0  0  0  0  0  0  0  0
   -5.1469   -0.0035    0.4876 C   0  0  0  0  0  0  0  0  0  0  0  0
   -5.7768    0.9975    1.1216 C   0  0  0  0  0  0  0  0  0  0  0  0
   -7.4187    0.8106    1.6273 Cl  0  0  0  0  0  0  0  0  0  0  0  0
   -5.0035    2.5005    1.4685 Cl  0  0  0  0  0  0  0  0  0  0  0  0
   -3.3740    0.8166   -1.1983 C   0  0  0  0  0  0  0  0  0  0  0  0
   -2.0885    1.5537   -1.2402 C   0  0  0  0  0  0  0  0  0  0  0  0
   -1.4388    1.6455   -2.2704 O   0  0  0  0  0  0  0  0  0  0  0  0
   -1.7768    2.0874   -0.0344 O   0  0  0  0  0  0  0  0  0  0  0  0
   -0.4983    2.7225    0.0483 C   0  0  0  0  0  0  0  0  0  0  0  0
    0.4732    1.7632    0.6845 C   0  0  0  0  0  0  0  0  0  0  0  0
    0.5728    1.6699    2.0801 C   0  0  0  0  0  0  0  0  0  0  0  0
    1.4398    0.7475    2.6690 C   0  0  0  0  0  0  0  0  0  0  0  0
    2.2129   -0.0940    1.8697 C   0  0  0  0  0  0  0  0  0  0  0  0
    2.1262   -0.0021    0.4790 C   0  0  0  0  0  0  0  0  0  0  0  0
    2.8229   -0.8351   -0.3675 O   0  0  0  0  0  0  0  0  0  0  0  0
    4.1599   -1.0259   -0.1034 C   0  0  0  0  0  0  0  0  0  0  0  0
    5.0431    0.0371    0.1009 C   0  0  0  0  0  0  0  0  0  0  0  0
    6.3951   -0.2212    0.3286 C   0  0  0  0  0  0  0  0  0  0  0  0
    6.8638   -1.5360    0.3365 C   0  0  0  0  0  0  0  0  0  0  0  0
    5.9834   -2.5947    0.1093 C   0  0  0  0  0  0  0  0  0  0  0  0
    4.6309   -2.3391   -0.1191 C   0  0  0  0  0  0  0  0  0  0  0  0
    1.2473    0.9070   -0.1117 C   0  0  0  0  0  0  0  0  0  0  0  0
  1  2  1  0
  2  3  1  0
  2  4  1  0
  4  5  1  0
  5  6  2  3
  6  7  1  0
  6  8  1  0
  4  9  1  0
  9 10  1  0
 10 11  2  0
 10 12  1  0
 12 13  1  0
 13 14  1  0
 14 15  2  0
 15 16  1  0
 16 17  2  0
 17 18  1  0
 18 19  1  0
 19 20  1  0
 20 21  2  0
 21 22  1  0
 22 23  2  0
 23 24  1  0
 24 25  2  0
 18 26  2  0
  9  2  1  0
 26 14  1  0
 25 20  1  0
M  END
>  <target>  (592) 
-6.291

$$$$

     RDKit          3D

 23 25  0  0  0  0  0  0  0  0999 V2000
   -0.6679   -1.4505    1.4412 C   0  0  0  0  0  0  0  0  0  0  0  0
   -0.5390   -0.0237    1.0475 N   0  0  0  0  0  0  0  0  0  0  0  0
   -0.3287    0.2096   -0.3660 C   0  0  0  0  0  0  0  0  0  0  0  0
   -1.3931    0.3383   -1.1896 C   0  0  0  0  0  0  0  0  0  0  0  0
   -1.2743    0.4871   -2.5634 O   0  0  0  0  0  0  0  0  0  0  0  0
   -2.7941    0.3347   -0.7115 C   0  0  0  0  0  0  0  0  0  0  0  0
   -3.8656    0.0417   -1.5669 C   0  0  0  0  0  0  0  0  0  0  0  0
   -5.1839    0.0440   -1.0940 C   0  0  0  0  0  0  0  0  0  0  0  0
   -5.4538    0.3416    0.2422 C   0  0  0  0  0  0  0  0  0  0  0  0
   -4.4071    0.6446    1.1087 C   0  0  0  0  0  0  0  0  0  0  0  0
   -3.0988    0.6491    0.6162 C   0  0  0  0  0  0  0  0  0  0  0  0
   -1.7487    1.0061    1.6866 S   0  0  0  0  0  0  0  0  0  0  0  0
   -2.0869    0.5260    3.0102 O   0  0  0  0  0  0  0  0  0  0  0  0
   -1.3579    2.3787    1.4506 O   0  0  0  0  0  0  0  0  0  0  0  0
    1.0839    0.2296   -0.8816 C   0  0  0  0  0  0  0  0  0  0  0  0
    1.2948    0.2604   -2.0913 O   0  0  0  0  0  0  0  0  0  0  0  0
    2.0138    0.2081    0.1228 N   0  0  0  0  0  0  0  0  0  0  0  0
    3.4031    0.2016    0.0290 C   0  0  0  0  0  0  0  0  0  0  0  0
    4.1024    0.2201   -1.1698 C   0  0  0  0  0  0  0  0  0  0  0  0
    5.4964    0.2102   -1.1346 C   0  0  0  0  0  0  0  0  0  0  0  0
    6.1487    0.1818    0.0903 C   0  0  0  0  0  0  0  0  0  0  0  0
    5.3738    0.1628    1.2352 C   0  0  0  0  0  0  0  0  0  0  0  0
    4.0222    0.1691    1.2289 N   0  0  0  0  0  0  0  0  0  0  0  0
  1  2  1  0
  2  3  1  0
  3  4  2  0
  4  5  1  0
  4  6  1  0
  6  7  2  0
  7  8  1  0
  8  9  2  0
  9 10  1  0
 10 11  2  0
 11 12  1  0
 12 13  2  0
 12 14  2  0
  3 15  1  0
 15 16  2  0
 15 17  1  0
 17 18  1  0
 18 19  2  0
 19 20  1  0
 20 21  2  0
 21 22  1  0
 22 23  2  0
 11  6  1  0
 12  2  1  0
 23 18  1  0
M  END
>  <target>  (593) 
-4.16

$$$$

     RDKit          3D

 25 27  0  0  0  0  0  0  0  0999 V2000
    1.3573    2.4976    1.5563 O   0  0  0  0  0  0  0  0  0  0  0  0
    0.6565    1.8052    0.8375 C   0  0  0  0  0  0  0  0  0  0  0  0
    1.0066    1.2031   -0.3223 N   0  0  0  0  0  0  0  0  0  0  0  0
    2.3239    1.2452   -0.8924 C   0  0  0  0  0  0  0  0  0  0  0  0
    3.0676    0.1589   -0.3388 O   0  0  0  0  0  0  0  0  0  0  0  0
    4.3500    0.1049   -0.7890 C   0  0  0  0  0  0  0  0  0  0  0  0
    4.8454    0.8871   -1.5869 O   0  0  0  0  0  0  0  0  0  0  0  0
    5.0565   -1.0670   -0.1513 C   0  0  0  0  0  0  0  0  0  0  0  0
    6.4982   -1.1839   -0.6137 C   0  0  0  0  0  0  0  0  0  0  0  0
   -0.0051    0.4012   -0.7698 C   0  0  0  0  0  0  0  0  0  0  0  0
    0.0552   -0.3143   -1.7650 O   0  0  0  0  0  0  0  0  0  0  0  0
   -1.2106    0.5125    0.2172 C   0  0  0  0  0  0  0  0  0  0  0  0
   -0.6496    1.5022    1.1209 N   0  0  0  0  0  0  0  0  0  0  0  0
   -2.4519    1.0280   -0.5254 C   0  0  0  0  0  0  0  0  0  0  0  0
   -2.9916    2.3084   -0.3018 C   0  0  0  0  0  0  0  0  0  0  0  0
   -4.1334    2.7366   -0.9854 C   0  0  0  0  0  0  0  0  0  0  0  0
   -4.7542    1.8978   -1.9068 C   0  0  0  0  0  0  0  0  0  0  0  0
   -4.2335    0.6305   -2.1496 C   0  0  0  0  0  0  0  0  0  0  0  0
   -3.0942    0.1995   -1.4667 C   0  0  0  0  0  0  0  0  0  0  0  0
   -1.4817   -0.7652    1.0295 C   0  0  0  0  0  0  0  0  0  0  0  0
   -2.5380   -0.7815    1.9651 C   0  0  0  0  0  0  0  0  0  0  0  0
   -2.8018   -1.9131    2.7396 C   0  0  0  0  0  0  0  0  0  0  0  0
   -2.0136   -3.0506    2.6001 C   0  0  0  0  0  0  0  0  0  0  0  0
   -0.9638   -3.0574    1.6864 C   0  0  0  0  0  0  0  0  0  0  0  0
   -0.6978   -1.9263    0.9091 C   0  0  0  0  0  0  0  0  0  0  0  0
  1  2  2  0
  2  3  1  0
  3  4  1  0
  4  5  1  0
  5  6  1  0
  6  7  2  0
  6  8  1  0
  8  9  1  0
  3 10  1  0
 10 11  2  0
 10 12  1  0
 12 13  1  0
 12 14  1  0
 14 15  2  0
 15 16  1  0
 16 17  2  0
 17 18  1  0
 18 19  2  0
 12 20  1  0
 20 21  2  0
 21 22  1  0
 22 23  2  0
 23 24  1  0
 24 25  2  0
 13  2  1  0
 19 14  1  0
 25 20  1  0
M  END
>  <target>  (594) 
-4.907

$$$$

     RDKit          3D

  5  5  0  0  0  0  0  0  0  0999 V2000
    1.1665   -0.4644   -0.2120 C   0  0  0  0  0  0  0  0  0  0  0  0
   -0.1498   -1.0986   -0.6260 C   0  0  0  0  0  0  0  0  0  0  0  0
   -1.1603   -0.4385    0.2995 C   0  0  0  0  0  0  0  0  0  0  0  0
   -0.6368    0.9790    0.5249 C   0  0  0  0  0  0  0  0  0  0  0  0
    0.7977    0.9960   -0.0007 C   0  0  0  0  0  0  0  0  0  0  0  0
  1  2  1  0
  2  3  1  0
  3  4  1  0
  4  5  1  0
  5  1  1  0
M  END
>  <target>  (595) 
-2.64

$$$$

     RDKit          3D

  8  8  0  0  0  0  0  0  0  0999 V2000
    2.0598    0.0137   -0.6059 C   0  0  0  0  0  0  0  0  0  0  0  0
    0.6207   -0.2135   -0.2334 C   0  0  0  0  0  0  0  0  0  0  0  0
    0.0834   -1.5076   -0.3470 C   0  0  0  0  0  0  0  0  0  0  0  0
   -1.2349   -1.7685    0.0238 C   0  0  0  0  0  0  0  0  0  0  0  0
   -2.0256   -0.7424    0.5276 C   0  0  0  0  0  0  0  0  0  0  0  0
   -1.5024    0.5466    0.6393 C   0  0  0  0  0  0  0  0  0  0  0  0
   -0.1996    0.8387    0.2134 C   0  0  0  0  0  0  0  0  0  0  0  0
    0.3158    2.1240    0.4471 N   0  0  0  0  0  0  0  0  0  0  0  0
  1  2  1  0
  2  3  2  0
  3  4  1  0
  4  5  2  0
  5  6  1  0
  6  7  2  0
  7  8  1  0
  7  2  1  0
M  END
>  <target>  (596) 
-2.21

$$$$

     RDKit          3D

 11 11  0  0  0  0  0  0  0  0999 V2000
    1.8958   -0.6493    0.0050 C   0  0  0  0  0  0  0  0  0  0  0  0
    3.2235   -0.9315    0.1745 O   0  0  0  0  0  0  0  0  0  0  0  0
    4.1268    0.1638    0.0979 C   0  0  0  0  0  0  0  0  0  0  0  0
    1.3479    0.6100   -0.2371 C   0  0  0  0  0  0  0  0  0  0  0  0
   -0.0353    0.7577   -0.3916 C   0  0  0  0  0  0  0  0  0  0  0  0
   -0.8886   -0.3511   -0.3109 C   0  0  0  0  0  0  0  0  0  0  0  0
   -2.3812   -0.1820   -0.4646 C   0  0  0  0  0  0  0  0  0  0  0  0
   -3.0329    0.3094    0.7971 C   0  0  0  0  0  0  0  0  0  0  0  0
   -3.7430    1.4415    0.8911 C   0  0  0  0  0  0  0  0  0  0  0  0
   -0.3333   -1.6111   -0.0600 C   0  0  0  0  0  0  0  0  0  0  0  0
    1.0479   -1.7554    0.0932 C   0  0  0  0  0  0  0  0  0  0  0  0
  1  2  1  0
  2  3  1  0
  1  4  2  0
  4  5  1  0
  5  6  2  0
  6  7  1  0
  7  8  1  0
  8  9  2  0
  6 10  1  0
 10 11  2  0
 11  1  1  0
M  END
>  <target>  (597) 
-2.92

$$$$

     RDKit          3D

 20 20  0  0  0  0  0  0  0  0999 V2000
    5.8568   -0.7592    0.5274 C   0  0  0  0  0  0  0  0  0  0  0  0
    5.0887   -1.2710   -0.6007 N   0  0  0  0  0  0  0  0  0  0  0  0
    5.4572   -2.6054   -1.0445 C   0  0  0  0  0  0  0  0  0  0  0  0
    3.7870   -0.8497   -0.8975 C   0  0  0  0  0  0  0  0  0  0  0  0
    2.9791   -1.5946   -1.4461 O   0  0  0  0  0  0  0  0  0  0  0  0
    3.5359    0.4601   -0.5528 N   0  0  0  0  0  0  0  0  0  0  0  0
    2.2927    1.1256   -0.5688 C   0  0  0  0  0  0  0  0  0  0  0  0
    2.3088    2.5229   -0.4443 C   0  0  0  0  0  0  0  0  0  0  0  0
    1.1179    3.2568   -0.4452 C   0  0  0  0  0  0  0  0  0  0  0  0
   -0.1037    2.5997   -0.5582 C   0  0  0  0  0  0  0  0  0  0  0  0
   -0.1179    1.2096   -0.6475 C   0  0  0  0  0  0  0  0  0  0  0  0
   -1.3197    0.5043   -0.8084 O   0  0  0  0  0  0  0  0  0  0  0  0
   -2.2503    0.6219    0.2140 C   0  0  0  0  0  0  0  0  0  0  0  0
   -2.1169    1.2806    1.2348 O   0  0  0  0  0  0  0  0  0  0  0  0
   -3.3440   -0.1355   -0.1050 N   0  0  0  0  0  0  0  0  0  0  0  0
   -4.4987   -0.3773    0.7637 C   0  0  0  0  0  0  0  0  0  0  0  0
   -5.4975   -1.2605   -0.0056 C   0  0  0  0  0  0  0  0  0  0  0  0
   -4.0721   -1.1173    2.0407 C   0  0  0  0  0  0  0  0  0  0  0  0
   -5.2026    0.9396    1.1290 C   0  0  0  0  0  0  0  0  0  0  0  0
    1.0658    0.4690   -0.6690 C   0  0  0  0  0  0  0  0  0  0  0  0
  1  2  1  0
  2  3  1  0
  2  4  1  0
  4  5  2  0
  4  6  1  0
  6  7  1  0
  7  8  2  0
  8  9  1  0
  9 10  2  0
 10 11  1  0
 11 12  1  0
 12 13  1  0
 13 14  2  0
 13 15  1  0
 15 16  1  0
 16 17  1  0
 16 18  1  0
 16 19  1  0
 11 20  2  0
 20  7  1  0
M  END
>  <target>  (598) 
-2.93

$$$$

     RDKit          3D

  5  4  0  0  0  0  0  0  0  0999 V2000
   -1.4641   -0.6196   -0.3793 C   0  0  0  0  0  0  0  0  0  0  0  0
   -0.2070    0.2381   -0.2392 C   0  0  0  0  0  0  0  0  0  0  0  0
   -0.4470    1.3877    0.7388 C   0  0  0  0  0  0  0  0  0  0  0  0
    0.9527   -0.6077    0.2244 C   0  0  0  0  0  0  0  0  0  0  0  0
    2.0785   -0.7865   -0.4787 C   0  0  0  0  0  0  0  0  0  0  0  0
  1  2  1  0
  2  3  1  0
  2  4  1  0
  4  5  2  0
M  END
>  <target>  (599) 
-2.73

$$$$

     RDKit          3D

  7  7  0  0  0  0  0  0  0  0999 V2000
    2.4618   -0.5570    0.0707 O   0  0  0  0  0  0  0  0  0  0  0  0
    1.1369   -0.2734    0.0388 C   0  0  0  0  0  0  0  0  0  0  0  0
    0.6947    0.9559   -0.4026 C   0  0  0  0  0  0  0  0  0  0  0  0
   -0.6775    1.1782   -0.4086 C   0  0  0  0  0  0  0  0  0  0  0  0
   -1.5318    0.1671    0.0241 C   0  0  0  0  0  0  0  0  0  0  0  0
   -0.9730   -1.0310    0.4471 C   0  0  0  0  0  0  0  0  0  0  0  0
    0.3554   -1.2780    0.4649 N   0  0  0  0  0  0  0  0  0  0  0  0
  1  2  1  0
  2  3  2  0
  3  4  1  0
  4  5  2  0
  5  6  1  0
  6  7  2  0
  7  2  1  0
M  END
>  <target>  (600) 
1.02

$$$$

     RDKit          3D

  2  1  0  0  0  0  0  0  0  0999 V2000
   -0.7553   -0.0263    0.0205 C   0  0  0  0  0  0  0  0  0  0  0  0
    0.7553    0.0263   -0.0205 C   0  0  0  0  0  0  0  0  0  0  0  0
  1  2  1  0
M  END
>  <target>  (601) 
-1.36

$$$$

     RDKit          3D

  8  8  0  0  0  0  0  0  0  0999 V2000
    3.0415   -0.2241    0.1833 Cl  0  0  0  0  0  0  0  0  0  0  0  0
    1.3220   -0.0888    0.0803 C   0  0  0  0  0  0  0  0  0  0  0  0
    0.5829   -1.2690   -0.0516 C   0  0  0  0  0  0  0  0  0  0  0  0
   -0.8096   -1.2199   -0.1393 C   0  0  0  0  0  0  0  0  0  0  0  0
   -1.4676    0.0081   -0.0955 C   0  0  0  0  0  0  0  0  0  0  0  0
   -0.7340    1.1886    0.0361 C   0  0  0  0  0  0  0  0  0  0  0  0
    0.6613    1.1442    0.1243 C   0  0  0  0  0  0  0  0  0  0  0  0
    1.5049    2.6435    0.2856 Cl  0  0  0  0  0  0  0  0  0  0  0  0
  1  2  1  0
  2  3  2  0
  3  4  1  0
  4  5  2  0
  5  6  1  0
  6  7  2  0
  7  8  1  0
  7  2  1  0
M  END
>  <target>  (602) 
-3.05

$$$$

     RDKit          3D

 10 11  0  0  0  0  0  0  0  0999 V2000
    4.0982   -0.5914   -0.2845 S   0  0  0  0  0  0  0  0  0  0  0  0
    2.3649   -0.5303   -0.0955 C   0  0  0  0  0  0  0  0  0  0  0  0
    1.7423    0.6234   -0.0769 N   0  0  0  0  0  0  0  0  0  0  0  0
    0.3829    0.4083    0.0828 C   0  0  0  0  0  0  0  0  0  0  0  0
   -0.6098    1.4070    0.1491 C   0  0  0  0  0  0  0  0  0  0  0  0
   -1.9512    1.0454    0.3132 C   0  0  0  0  0  0  0  0  0  0  0  0
   -2.3132   -0.2945    0.4115 C   0  0  0  0  0  0  0  0  0  0  0  0
   -1.3485   -1.3049    0.3488 C   0  0  0  0  0  0  0  0  0  0  0  0
   -0.0045   -0.9307    0.1839 C   0  0  0  0  0  0  0  0  0  0  0  0
    1.3970   -1.9262    0.0723 S   0  0  0  0  0  0  0  0  0  0  0  0
  1  2  1  0
  2  3  2  0
  3  4  1  0
  4  5  2  0
  5  6  1  0
  6  7  2  0
  7  8  1  0
  8  9  2  0
  9 10  1  0
  9  4  1  0
 10  2  1  0
M  END
>  <target>  (603) 
-3.18

$$$$

     RDKit          3D

 22 23  0  0  0  0  0  0  0  0999 V2000
    5.3118    0.3477   -0.1266 Cl  0  0  0  0  0  0  0  0  0  0  0  0
    3.5735    0.2339   -0.0852 C   0  0  0  0  0  0  0  0  0  0  0  0
    2.9473   -0.6325    0.8286 C   0  0  0  0  0  0  0  0  0  0  0  0
    3.9039   -1.5941    1.9211 Cl  0  0  0  0  0  0  0  0  0  0  0  0
    1.5426   -0.7224    0.8598 C   0  0  0  0  0  0  0  0  0  0  0  0
    0.7545   -1.7942    1.9896 Cl  0  0  0  0  0  0  0  0  0  0  0  0
    0.7438    0.0487   -0.0177 C   0  0  0  0  0  0  0  0  0  0  0  0
    1.3928    0.9145   -0.9298 C   0  0  0  0  0  0  0  0  0  0  0  0
    0.4191    1.8710   -2.0176 Cl  0  0  0  0  0  0  0  0  0  0  0  0
    2.7971    1.0085   -0.9655 C   0  0  0  0  0  0  0  0  0  0  0  0
    3.5674    2.0831   -2.0992 Cl  0  0  0  0  0  0  0  0  0  0  0  0
   -0.7438   -0.0487    0.0177 C   0  0  0  0  0  0  0  0  0  0  0  0
   -1.4287   -0.9905   -0.7864 C   0  0  0  0  0  0  0  0  0  0  0  0
   -0.4995   -2.0412   -1.8252 Cl  0  0  0  0  0  0  0  0  0  0  0  0
   -2.8331   -1.0847   -0.7550 C   0  0  0  0  0  0  0  0  0  0  0  0
   -3.6481   -2.2538   -1.7561 Cl  0  0  0  0  0  0  0  0  0  0  0  0
   -3.5735   -0.2339    0.0852 C   0  0  0  0  0  0  0  0  0  0  0  0
   -5.3118   -0.3477    0.1266 Cl  0  0  0  0  0  0  0  0  0  0  0  0
   -2.9112    0.7087    0.8919 C   0  0  0  0  0  0  0  0  0  0  0  0
   -3.8232    1.7648    1.9342 Cl  0  0  0  0  0  0  0  0  0  0  0  0
   -1.5066    0.7983    0.8563 C   0  0  0  0  0  0  0  0  0  0  0  0
   -0.6740    1.9644    1.8531 Cl  0  0  0  0  0  0  0  0  0  0  0  0
  1  2  1  0
  2  3  2  0
  3  4  1  0
  3  5  1  0
  5  6  1  0
  5  7  2  0
  7  8  1  0
  8  9  1  0
  8 10  2  0
 10 11  1  0
  7 12  1  0
 12 13  2  0
 13 14  1  0
 13 15  1  0
 15 16  1  0
 15 17  2  0
 17 18  1  0
 17 19  1  0
 19 20  1  0
 19 21  2  0
 21 22  1  0
 10  2  1  0
 21 12  1  0
M  END
>  <target>  (604) 
-11.6

$$$$

     RDKit          3D

 16 18  0  0  0  0  0  0  0  0999 V2000
   -1.7511    2.8215    0.0511 C   0  0  0  0  0  0  0  0  0  0  0  0
   -0.4938    2.2532    0.3891 O   0  0  0  0  0  0  0  0  0  0  0  0
   -0.3267    0.9090    0.1079 C   0  0  0  0  0  0  0  0  0  0  0  0
   -1.2467    0.0239   -0.4738 C   0  0  0  0  0  0  0  0  0  0  0  0
   -2.5178    0.3100   -0.8897 O   0  0  0  0  0  0  0  0  0  0  0  0
   -3.0548   -0.8302   -1.3895 C   0  0  0  0  0  0  0  0  0  0  0  0
   -2.1534   -1.8632   -1.3080 C   0  0  0  0  0  0  0  0  0  0  0  0
   -0.9784   -1.3245   -0.7171 C   0  0  0  0  0  0  0  0  0  0  0  0
    0.2811   -1.8489   -0.3670 C   0  0  0  0  0  0  0  0  0  0  0  0
    1.2307   -1.0005    0.2167 C   0  0  0  0  0  0  0  0  0  0  0  0
    2.5455   -1.4974    0.5951 C   0  0  0  0  0  0  0  0  0  0  0  0
    3.4343   -0.6688    1.1503 C   0  0  0  0  0  0  0  0  0  0  0  0
    3.1406    0.7515    1.4023 C   0  0  0  0  0  0  0  0  0  0  0  0
    3.9818    1.4811    1.9137 O   0  0  0  0  0  0  0  0  0  0  0  0
    1.8828    1.1995    1.0332 O   0  0  0  0  0  0  0  0  0  0  0  0
    0.9172    0.3425    0.4412 C   0  0  0  0  0  0  0  0  0  0  0  0
  1  2  1  0
  2  3  1  0
  3  4  2  0
  4  5  1  0
  5  6  1  0
  6  7  2  0
  7  8  1  0
  8  9  2  0
  9 10  1  0
 10 11  1  0
 11 12  2  0
 12 13  1  0
 13 14  2  0
 13 15  1  0
 15 16  1  0
  8  4  1  0
 16  3  1  0
 16 10  2  0
M  END
>  <target>  (605) 
-3.6639999999999997

$$$$

     RDKit          3D

  4  3  0  0  0  0  0  0  0  0999 V2000
    1.0596   -0.2978   -0.1216 C   0  0  0  0  0  0  0  0  0  0  0  0
   -0.1301    0.5593    0.2044 C   0  0  0  0  0  0  0  0  0  0  0  0
   -0.0370    1.6832    0.6828 O   0  0  0  0  0  0  0  0  0  0  0  0
   -1.3440    0.0066   -0.0699 N   0  0  0  0  0  0  0  0  0  0  0  0
  1  2  1  0
  2  3  2  0
  2  4  1  0
M  END
>  <target>  (606) 
1.58

$$$$

     RDKit          3D

 11 12  0  0  0  0  0  0  0  0999 V2000
   -2.3266   -1.3313   -0.0618 C   0  0  0  0  0  0  0  0  0  0  0  0
   -1.3935   -0.1488   -0.0754 C   0  0  0  0  0  0  0  0  0  0  0  0
   -1.9458    1.1378   -0.1848 C   0  0  0  0  0  0  0  0  0  0  0  0
   -1.1281    2.2629   -0.2020 C   0  0  0  0  0  0  0  0  0  0  0  0
    0.2534    2.1182   -0.1100 C   0  0  0  0  0  0  0  0  0  0  0  0
    0.8379    0.8481    0.0004 C   0  0  0  0  0  0  0  0  0  0  0  0
    2.2338    0.7182    0.0924 C   0  0  0  0  0  0  0  0  0  0  0  0
    2.8325   -0.5357    0.2027 C   0  0  0  0  0  0  0  0  0  0  0  0
    2.0419   -1.6770    0.2225 C   0  0  0  0  0  0  0  0  0  0  0  0
    0.6524   -1.5642    0.1319 C   0  0  0  0  0  0  0  0  0  0  0  0
    0.0161   -0.3074    0.0192 C   0  0  0  0  0  0  0  0  0  0  0  0
  1  2  1  0
  2  3  2  0
  3  4  1  0
  4  5  2  0
  5  6  1  0
  6  7  2  0
  7  8  1  0
  8  9  2  0
  9 10  1  0
 10 11  2  0
 11  2  1  0
 11  6  1  0
M  END
>  <target>  (607) 
-3.7

$$$$

     RDKit          3D

 20 21  0  0  0  0  0  0  0  0999 V2000
    1.4218    1.5346    1.4112 C   0  0  0  0  0  0  0  0  0  0  0  0
    2.0136    0.1510    1.1889 C   0  0  0  0  0  0  0  0  0  0  0  0
    2.6146    0.0096   -0.1406 N   0  0  0  0  0  0  0  0  0  0  0  0
    3.9414    0.5969   -0.3357 C   0  0  0  0  0  0  0  0  0  0  0  0
    5.0508   -0.3967   -0.0257 C   0  0  0  0  0  0  0  0  0  0  0  0
    2.0454   -0.6862   -1.2125 C   0  0  0  0  0  0  0  0  0  0  0  0
    2.6533   -0.8056   -2.2819 O   0  0  0  0  0  0  0  0  0  0  0  0
    0.6625   -1.3526   -1.0095 C   0  0  0  0  0  0  0  0  0  0  0  0
    0.2602   -2.1257   -2.2666 C   0  0  0  0  0  0  0  0  0  0  0  0
   -0.3015   -0.3308   -0.7603 O   0  0  0  0  0  0  0  0  0  0  0  0
   -1.4627   -0.6173   -0.0845 C   0  0  0  0  0  0  0  0  0  0  0  0
   -1.7702   -1.8638    0.4697 C   0  0  0  0  0  0  0  0  0  0  0  0
   -2.9658   -2.0532    1.1615 C   0  0  0  0  0  0  0  0  0  0  0  0
   -3.8655   -1.0006    1.3072 C   0  0  0  0  0  0  0  0  0  0  0  0
   -3.5880    0.2577    0.7575 C   0  0  0  0  0  0  0  0  0  0  0  0
   -4.5009    1.3160    0.9034 C   0  0  0  0  0  0  0  0  0  0  0  0
   -4.2372    2.5710    0.3556 C   0  0  0  0  0  0  0  0  0  0  0  0
   -3.0589    2.7835   -0.3481 C   0  0  0  0  0  0  0  0  0  0  0  0
   -2.1428    1.7410   -0.5003 C   0  0  0  0  0  0  0  0  0  0  0  0
   -2.3784    0.4606    0.0486 C   0  0  0  0  0  0  0  0  0  0  0  0
  1  2  1  0
  2  3  1  0
  3  4  1  0
  4  5  1  0
  3  6  1  0
  6  7  2  0
  6  8  1  0
  8  9  1  0
  8 10  1  0
 10 11  1  0
 11 12  2  0
 12 13  1  0
 13 14  2  0
 14 15  1  0
 15 16  2  0
 16 17  1  0
 17 18  2  0
 18 19  1  0
 19 20  2  0
 20 11  1  0
 20 15  1  0
M  END
>  <target>  (608) 
-3.57

$$$$

     RDKit          3D

  7  6  0  0  0  0  0  0  0  0999 V2000
    1.9325   -0.6749    0.4319 C   0  0  0  0  0  0  0  0  0  0  0  0
    0.9708    0.4818    0.1691 C   0  0  0  0  0  0  0  0  0  0  0  0
    1.4317    1.1801   -0.9904 O   0  0  0  0  0  0  0  0  0  0  0  0
   -0.5201    0.0757   -0.0264 C   0  0  0  0  0  0  0  0  0  0  0  0
   -1.0624   -0.6320    1.2286 C   0  0  0  0  0  0  0  0  0  0  0  0
   -1.3633    1.3474   -0.2639 C   0  0  0  0  0  0  0  0  0  0  0  0
   -0.7064   -0.8517   -1.2421 C   0  0  0  0  0  0  0  0  0  0  0  0
  1  2  1  0
  2  3  1  0
  2  4  1  0
  4  5  1  0
  4  6  1  0
  4  7  1  0
M  END
>  <target>  (609) 
-0.62

$$$$

     RDKit          3D

  8  7  0  0  0  0  0  0  0  0999 V2000
    2.6233   -0.2703    1.4572 C   0  0  0  0  0  0  0  0  0  0  0  0
    2.4494   -0.6918    0.0047 C   0  0  0  0  0  0  0  0  0  0  0  0
    1.2827    0.0196   -0.6778 C   0  0  0  0  0  0  0  0  0  0  0  0
   -0.0686   -0.4642   -0.2027 C   0  0  0  0  0  0  0  0  0  0  0  0
   -0.2746   -1.4888    0.4314 O   0  0  0  0  0  0  0  0  0  0  0  0
   -1.0326    0.4067   -0.6174 O   0  0  0  0  0  0  0  0  0  0  0  0
   -2.3623    0.0365   -0.2334 C   0  0  0  0  0  0  0  0  0  0  0  0
   -3.3169    1.0937   -0.7530 C   0  0  0  0  0  0  0  0  0  0  0  0
  1  2  1  0
  2  3  1  0
  3  4  1  0
  4  5  2  0
  4  6  1  0
  6  7  1  0
  7  8  1  0
M  END
>  <target>  (610) 
-1.36

$$$$

     RDKit          3D

 13 14  0  0  0  0  0  0  0  0999 V2000
    3.3216   -0.7134    0.0895 C   0  0  0  0  0  0  0  0  0  0  0  0
    1.9468   -0.1227    0.0392 C   0  0  0  0  0  0  0  0  0  0  0  0
    1.7208    1.1955   -0.0240 C   0  0  0  0  0  0  0  0  0  0  0  0
    0.3625    1.7689   -0.0733 C   0  0  0  0  0  0  0  0  0  0  0  0
    0.2067    2.9817   -0.1305 O   0  0  0  0  0  0  0  0  0  0  0  0
   -0.7779    0.8363   -0.0511 C   0  0  0  0  0  0  0  0  0  0  0  0
   -2.0844    1.3401   -0.0963 C   0  0  0  0  0  0  0  0  0  0  0  0
   -3.1707    0.4640   -0.0757 C   0  0  0  0  0  0  0  0  0  0  0  0
   -2.9559   -0.9125   -0.0101 C   0  0  0  0  0  0  0  0  0  0  0  0
   -1.6543   -1.4157    0.0351 C   0  0  0  0  0  0  0  0  0  0  0  0
   -0.5614   -0.5388    0.0145 C   0  0  0  0  0  0  0  0  0  0  0  0
    0.8109   -1.0836    0.0628 C   0  0  0  0  0  0  0  0  0  0  0  0
    1.0046   -2.2922    0.1205 O   0  0  0  0  0  0  0  0  0  0  0  0
  1  2  1  0
  2  3  2  0
  3  4  1  0
  4  5  2  0
  4  6  1  0
  6  7  2  0
  7  8  1  0
  8  9  2  0
  9 10  1  0
 10 11  2  0
 11 12  1  0
 12 13  2  0
 11  6  1  0
 12  2  1  0
M  END
>  <target>  (611) 
-3.03

$$$$

     RDKit          3D

 14 16  0  0  0  0  0  0  0  0999 V2000
   -3.5722   -0.1114   -0.1042 C   0  0  0  0  0  0  0  0  0  0  0  0
   -2.9680   -1.3421   -0.3089 C   0  0  0  0  0  0  0  0  0  0  0  0
   -1.5736   -1.4454   -0.2943 C   0  0  0  0  0  0  0  0  0  0  0  0
   -0.7332   -0.3243   -0.0750 C   0  0  0  0  0  0  0  0  0  0  0  0
   -1.3788    0.9222    0.1316 C   0  0  0  0  0  0  0  0  0  0  0  0
   -2.7813    1.0132    0.1146 C   0  0  0  0  0  0  0  0  0  0  0  0
   -0.6186    2.0731    0.3543 C   0  0  0  0  0  0  0  0  0  0  0  0
    0.7720    2.0169    0.3771 C   0  0  0  0  0  0  0  0  0  0  0  0
    1.4437    0.8081    0.1779 C   0  0  0  0  0  0  0  0  0  0  0  0
    2.8487    0.7855    0.2070 C   0  0  0  0  0  0  0  0  0  0  0  0
    3.5530   -0.3995    0.0128 C   0  0  0  0  0  0  0  0  0  0  0  0
    2.8585   -1.5778   -0.2133 C   0  0  0  0  0  0  0  0  0  0  0  0
    1.4606   -1.5681   -0.2446 C   0  0  0  0  0  0  0  0  0  0  0  0
    0.7067   -0.3825   -0.0514 C   0  0  0  0  0  0  0  0  0  0  0  0
  1  2  2  0
  2  3  1  0
  3  4  2  0
  4  5  1  0
  5  6  2  0
  5  7  1  0
  7  8  2  0
  8  9  1  0
  9 10  2  0
 10 11  1  0
 11 12  2  0
 12 13  1  0
 13 14  2  0
  6  1  1  0
 14  4  1  0
 14  9  1  0
M  END
>  <target>  (612) 
-5.26

$$$$

     RDKit          3D

  8  8  0  0  0  0  0  0  0  0999 V2000
   -2.3702   -0.7356    0.4651 C   0  0  0  0  0  0  0  0  0  0  0  0
   -1.0983   -0.0568    0.0569 C   0  0  0  0  0  0  0  0  0  0  0  0
   -1.1191    1.2188   -0.5058 C   0  0  0  0  0  0  0  0  0  0  0  0
    0.0865    1.8159   -0.8359 C   0  0  0  0  0  0  0  0  0  0  0  0
    1.2919    1.2408   -0.6378 N   0  0  0  0  0  0  0  0  0  0  0  0
    1.3047    0.0089   -0.0781 C   0  0  0  0  0  0  0  0  0  0  0  0
    2.6424   -0.6278    0.1515 C   0  0  0  0  0  0  0  0  0  0  0  0
    0.1395   -0.6640    0.2845 C   0  0  0  0  0  0  0  0  0  0  0  0
  1  2  1  0
  2  3  2  0
  3  4  1  0
  4  5  2  0
  5  6  1  0
  6  7  1  0
  6  8  2  0
  8  2  1  0
M  END
>  <target>  (613) 
0.38

$$$$

     RDKit          3D

 10  9  0  0  0  0  0  0  0  0999 V2000
    3.8636   -1.1259    0.8737 C   0  0  0  0  0  0  0  0  0  0  0  0
    2.9711    0.0898    1.0668 C   0  0  0  0  0  0  0  0  0  0  0  0
    1.9700    0.2376   -0.0798 C   0  0  0  0  0  0  0  0  0  0  0  0
    1.0721    1.4595    0.1234 C   0  0  0  0  0  0  0  0  0  0  0  0
    0.1259    1.7240   -1.0518 C   0  0  0  0  0  0  0  0  0  0  0  0
   -0.8504    0.5937   -1.3920 C   0  0  0  0  0  0  0  0  0  0  0  0
   -1.7839    0.2257   -0.2366 C   0  0  0  0  0  0  0  0  0  0  0  0
   -2.8121   -0.8244   -0.6693 C   0  0  0  0  0  0  0  0  0  0  0  0
   -3.7732   -1.1877    0.4573 C   0  0  0  0  0  0  0  0  0  0  0  0
   -3.0780   -1.7758    1.5478 O   0  0  0  0  0  0  0  0  0  0  0  0
  1  2  1  0
  2  3  1  0
  3  4  1  0
  4  5  1  0
  5  6  1  0
  6  7  1  0
  7  8  1  0
  8  9  1  0
  9 10  1  0
M  END
>  <target>  (614) 
-3.01

$$$$

     RDKit          3D

  3  2  0  0  0  0  0  0  0  0999 V2000
    1.6378    0.8434   -0.0264 Br  0  0  0  0  0  0  0  0  0  0  0  0
   -0.0045   -0.1763    0.0066 C   0  0  0  0  0  0  0  0  0  0  0  0
   -1.5926    0.9254   -0.0395 Br  0  0  0  0  0  0  0  0  0  0  0  0
  1  2  1  0
  2  3  1  0
M  END
>  <target>  (615) 
-1.17

$$$$

     RDKit          3D

 28 31  0  0  0  0  0  0  0  0999 V2000
    3.4736    1.9410    2.1732 C   0  0  0  0  0  0  0  0  0  0  0  0
    2.8571    1.4470    0.8669 C   0  0  0  0  0  0  0  0  0  0  0  0
    1.4017    1.9594    0.6849 C   0  0  0  0  0  0  0  0  0  0  0  0
    0.5502    0.6951    0.5611 C   0  0  0  0  0  0  0  0  0  0  0  0
   -0.8293    0.7879   -0.1107 C   0  0  0  0  0  0  0  0  0  0  0  0
   -1.6805    1.8838    0.5479 C   0  0  0  0  0  0  0  0  0  0  0  0
   -3.0624    1.9697   -0.0838 C   0  0  0  0  0  0  0  0  0  0  0  0
   -3.7539    0.6353   -0.0000 C   0  0  0  0  0  0  0  0  0  0  0  0
   -4.9301    0.5401    0.6465 C   0  0  0  0  0  0  0  0  0  0  0  0
   -5.6270   -0.7481    0.8227 C   0  0  0  0  0  0  0  0  0  0  0  0
   -6.7137   -0.8133    1.3833 O   0  0  0  0  0  0  0  0  0  0  0  0
   -4.9629   -1.9472    0.2881 C   0  0  0  0  0  0  0  0  0  0  0  0
   -3.7934   -1.8566   -0.3586 C   0  0  0  0  0  0  0  0  0  0  0  0
   -3.0131   -0.5685   -0.6218 C   0  0  0  0  0  0  0  0  0  0  0  0
   -3.0027   -0.3938   -2.1585 C   0  0  0  0  0  0  0  0  0  0  0  0
   -1.5364   -0.6169   -0.0363 C   0  0  0  0  0  0  0  0  0  0  0  0
   -1.6526   -0.9043    1.3103 F   0  0  0  0  0  0  0  0  0  0  0  0
   -0.5916   -1.7151   -0.6468 C   0  0  0  0  0  0  0  0  0  0  0  0
   -1.1136   -3.0365   -0.4970 O   0  0  0  0  0  0  0  0  0  0  0  0
    0.8222   -1.7000   -0.0218 C   0  0  0  0  0  0  0  0  0  0  0  0
    1.4923   -0.3200   -0.1231 C   0  0  0  0  0  0  0  0  0  0  0  0
    1.7701    0.0077   -1.6157 C   0  0  0  0  0  0  0  0  0  0  0  0
    2.7791   -0.1037    0.7349 C   0  0  0  0  0  0  0  0  0  0  0  0
    2.5860   -0.6659    2.0433 O   0  0  0  0  0  0  0  0  0  0  0  0
    4.0144   -0.8209    0.1638 C   0  0  0  0  0  0  0  0  0  0  0  0
    4.1549   -2.0404    0.3375 O   0  0  0  0  0  0  0  0  0  0  0  0
    5.0681   -0.0318   -0.5980 C   0  0  0  0  0  0  0  0  0  0  0  0
    5.9703   -0.9015   -1.2676 O   0  0  0  0  0  0  0  0  0  0  0  0
  1  2  1  0
  2  3  1  0
  3  4  1  0
  4  5  1  0
  5  6  1  0
  6  7  1  0
  7  8  1  0
  8  9  2  0
  9 10  1  0
 10 11  2  0
 10 12  1  0
 12 13  2  0
 13 14  1  0
 14 15  1  0
 14 16  1  0
 16 17  1  0
 16 18  1  0
 18 19  1  0
 18 20  1  0
 20 21  1  0
 21 22  1  0
 21 23  1  0
 23 24  1  0
 23 25  1  0
 25 26  2  0
 25 27  1  0
 27 28  1  0
 23  2  1  0
 21  4  1  0
 16  5  1  0
 14  8  1  0
M  END
>  <target>  (616) 
-3.59

$$$$

     RDKit          3D

 12 13  0  0  0  0  0  0  0  0999 V2000
    4.0126   -0.1609   -0.0760 C   0  0  0  0  0  0  0  0  0  0  0  0
    2.5422    0.0746    0.1029 C   0  0  0  0  0  0  0  0  0  0  0  0
    2.0789    0.9512    1.0872 C   0  0  0  0  0  0  0  0  0  0  0  0
    0.7080    1.1452    1.2730 C   0  0  0  0  0  0  0  0  0  0  0  0
   -0.2289    0.4589    0.4852 C   0  0  0  0  0  0  0  0  0  0  0  0
   -1.6114    0.6439    0.6606 C   0  0  0  0  0  0  0  0  0  0  0  0
   -2.5415   -0.0410   -0.1332 C   0  0  0  0  0  0  0  0  0  0  0  0
   -4.0129    0.1441    0.0911 C   0  0  0  0  0  0  0  0  0  0  0  0
   -2.0787   -0.9409   -1.0965 C   0  0  0  0  0  0  0  0  0  0  0  0
   -0.7078   -1.1350   -1.2822 C   0  0  0  0  0  0  0  0  0  0  0  0
    0.2293   -0.4409   -0.5015 C   0  0  0  0  0  0  0  0  0  0  0  0
    1.6118   -0.6258   -0.6769 C   0  0  0  0  0  0  0  0  0  0  0  0
  1  2  1  0
  2  3  2  0
  3  4  1  0
  4  5  2  0
  5  6  1  0
  6  7  2  0
  7  8  1  0
  7  9  1  0
  9 10  2  0
 10 11  1  0
 11 12  2  0
 12  2  1  0
 11  5  1  0
M  END
>  <target>  (617) 
-4.89

$$$$

     RDKit          3D

 14 13  0  0  0  0  0  0  0  0999 V2000
    4.8385    0.1618   -1.7413 C   0  0  0  0  0  0  0  0  0  0  0  0
    3.3683   -0.1401   -1.9729 C   0  0  0  0  0  0  0  0  0  0  0  0
    2.4197    0.2077   -0.4654 S   0  0  0  0  0  0  0  0  0  0  0  0
    0.8073   -0.2179   -1.0280 C   0  0  0  0  0  0  0  0  0  0  0  0
    0.6424   -0.6314   -2.1711 O   0  0  0  0  0  0  0  0  0  0  0  0
   -0.2368   -0.0704   -0.1139 N   0  0  0  0  0  0  0  0  0  0  0  0
   -1.5726   -0.4758   -0.5572 C   0  0  0  0  0  0  0  0  0  0  0  0
   -1.7865   -2.0024   -0.5383 C   0  0  0  0  0  0  0  0  0  0  0  0
   -3.1302   -2.3446   -1.1853 C   0  0  0  0  0  0  0  0  0  0  0  0
   -1.7329   -2.5753    0.8786 C   0  0  0  0  0  0  0  0  0  0  0  0
   -0.1117    0.4614    1.2511 C   0  0  0  0  0  0  0  0  0  0  0  0
   -0.0777    2.0018    1.3145 C   0  0  0  0  0  0  0  0  0  0  0  0
    0.2698    2.4515    2.7354 C   0  0  0  0  0  0  0  0  0  0  0  0
   -1.4044    2.6297    0.8846 C   0  0  0  0  0  0  0  0  0  0  0  0
  1  2  1  0
  2  3  1  0
  3  4  1  0
  4  5  2  0
  4  6  1  0
  6  7  1  0
  7  8  1  0
  8  9  1  0
  8 10  1  0
  6 11  1  0
 11 12  1  0
 12 13  1  0
 12 14  1  0
M  END
>  <target>  (618) 
-3.68

$$$$

     RDKit          3D

 15 14  0  0  0  0  0  0  0  0999 V2000
    3.2755   -1.6609   -2.2157 O   0  0  0  0  0  0  0  0  0  0  0  0
    3.0224   -0.8806   -1.3017 N   0  0  0  0  0  0  0  0  0  0  0  0
    3.7730   -0.3160   -0.5061 O   0  0  0  0  0  0  0  0  0  0  0  0
    1.6337   -0.6314   -1.1655 O   0  0  0  0  0  0  0  0  0  0  0  0
    1.3419    0.2863   -0.1162 C   0  0  0  0  0  0  0  0  0  0  0  0
   -0.1782    0.4960   -0.0414 C   0  0  0  0  0  0  0  0  0  0  0  0
   -0.8807   -0.8070    0.3776 C   0  0  0  0  0  0  0  0  0  0  0  0
   -2.2919   -0.5954    0.2899 O   0  0  0  0  0  0  0  0  0  0  0  0
   -3.0363   -1.7347    0.6826 N   0  0  0  0  0  0  0  0  0  0  0  0
   -2.3968   -2.7265    1.0347 O   0  0  0  0  0  0  0  0  0  0  0  0
   -4.2495   -1.5585    0.6085 O   0  0  0  0  0  0  0  0  0  0  0  0
   -0.4885    1.4714    0.9622 O   0  0  0  0  0  0  0  0  0  0  0  0
   -0.4410    2.8078    0.4950 N   0  0  0  0  0  0  0  0  0  0  0  0
   -0.0639    2.9826   -0.6633 O   0  0  0  0  0  0  0  0  0  0  0  0
   -0.7677    3.6217    1.3538 O   0  0  0  0  0  0  0  0  0  0  0  0
  1  2  1  0
  2  3  2  0
  2  4  1  0
  4  5  1  0
  5  6  1  0
  6  7  1  0
  7  8  1  0
  8  9  1  0
  9 10  1  0
  9 11  2  0
  6 12  1  0
 12 13  1  0
 13 14  1  0
 13 15  2  0
M  CHG  6   1  -1   2   1   9   1  10  -1  13   1  14  -1
M  END
>  <target>  (619) 
-2.22

$$$$

     RDKit          3D

 10 10  0  0  0  0  0  0  0  0999 V2000
   -2.3385    1.2067    0.0959 N   0  0  0  0  0  0  0  0  0  0  0  0
   -1.2059    0.3967   -0.0309 C   0  0  0  0  0  0  0  0  0  0  0  0
   -1.3314   -0.9964    0.0078 C   0  0  0  0  0  0  0  0  0  0  0  0
   -0.2041   -1.8233    0.0057 C   0  0  0  0  0  0  0  0  0  0  0  0
    1.0710   -1.2621    0.0068 C   0  0  0  0  0  0  0  0  0  0  0  0
    1.2026    0.1314    0.0278 C   0  0  0  0  0  0  0  0  0  0  0  0
    0.0707    0.9596    0.0292 C   0  0  0  0  0  0  0  0  0  0  0  0
    2.5398    0.7336    0.0597 N   0  0  0  0  0  0  0  0  0  0  0  0
    2.6192    1.9693    0.0040 O   0  0  0  0  0  0  0  0  0  0  0  0
    3.5142   -0.0289    0.1354 O   0  0  0  0  0  0  0  0  0  0  0  0
  1  2  1  0
  2  3  2  0
  3  4  1  0
  4  5  2  0
  5  6  1  0
  6  7  2  0
  6  8  1  0
  8  9  1  0
  8 10  2  0
  7  2  1  0
M  CHG  2   8   1   9  -1
M  END
>  <target>  (620) 
-2.19

$$$$

     RDKit          3D

  5  4  0  0  0  0  0  0  0  0999 V2000
    1.9342   -0.0550   -0.1274 C   0  0  0  0  0  0  0  0  0  0  0  0
    0.5396   -0.5972    0.1421 C   0  0  0  0  0  0  0  0  0  0  0  0
   -0.4778    0.5314    0.3099 C   0  0  0  0  0  0  0  0  0  0  0  0
   -1.8707   -0.0222    0.5792 C   0  0  0  0  0  0  0  0  0  0  0  0
   -3.0395    1.3047    0.7714 Cl  0  0  0  0  0  0  0  0  0  0  0  0
  1  2  1  0
  2  3  1  0
  3  4  1  0
  4  5  1  0
M  END
>  <target>  (621) 
-2.03

$$$$

     RDKit          3D

 22 22  0  0  0  0  0  0  0  0999 V2000
   -2.3800    3.1805    0.2954 Cl  0  0  0  0  0  0  0  0  0  0  0  0
   -3.3560    1.8472   -0.4305 C   0  0  0  0  0  0  0  0  0  0  0  0
   -3.2657    2.0022   -2.2277 Cl  0  0  0  0  0  0  0  0  0  0  0  0
   -5.0782    2.1709    0.0149 Cl  0  0  0  0  0  0  0  0  0  0  0  0
   -2.8802    0.4271    0.0885 C   0  0  0  0  0  0  0  0  0  0  0  0
   -3.4867   -0.7314   -0.5520 N   0  0  0  0  0  0  0  0  0  0  0  0
   -4.6131   -1.3210   -0.0591 C   0  0  0  0  0  0  0  0  0  0  0  0
   -5.2340   -0.9344    0.9184 O   0  0  0  0  0  0  0  0  0  0  0  0
   -1.4090    0.1936    0.0154 N   0  0  0  0  0  0  0  0  0  0  0  0
   -0.6813    0.0952   -1.1811 C   0  0  0  0  0  0  0  0  0  0  0  0
    0.6585   -0.0413   -1.1931 C   0  0  0  0  0  0  0  0  0  0  0  0
    1.4168   -0.0941   -0.0111 N   0  0  0  0  0  0  0  0  0  0  0  0
    0.6853   -0.0234    1.1854 C   0  0  0  0  0  0  0  0  0  0  0  0
   -0.6539    0.1120    1.1973 C   0  0  0  0  0  0  0  0  0  0  0  0
    2.9072   -0.1319   -0.0809 C   0  0  0  0  0  0  0  0  0  0  0  0
    3.2964   -1.3466    0.6230 N   0  0  0  0  0  0  0  0  0  0  0  0
    4.3287   -2.1316    0.2006 C   0  0  0  0  0  0  0  0  0  0  0  0
    5.0426   -1.8944   -0.7608 O   0  0  0  0  0  0  0  0  0  0  0  0
    3.6198    1.2095    0.3769 C   0  0  0  0  0  0  0  0  0  0  0  0
    3.5111    1.4850    2.1588 Cl  0  0  0  0  0  0  0  0  0  0  0  0
    5.3814    1.2020   -0.0253 Cl  0  0  0  0  0  0  0  0  0  0  0  0
    2.9140    2.6502   -0.4525 Cl  0  0  0  0  0  0  0  0  0  0  0  0
  1  2  1  0
  2  3  1  0
  2  4  1  0
  2  5  1  0
  5  6  1  0
  6  7  1  0
  7  8  2  0
  5  9  1  0
  9 10  1  0
 10 11  2  0
 11 12  1  0
 12 13  1  0
 13 14  2  0
 12 15  1  0
 15 16  1  0
 16 17  1  0
 17 18  2  0
 15 19  1  0
 19 20  1  0
 19 21  1  0
 19 22  1  0
 14  9  1  0
M  END
>  <target>  (622) 
-4.19

$$$$

     RDKit          3D

 24 26  0  0  0  0  0  0  0  0999 V2000
   -1.2687   -3.8263    0.7355 C   0  0  0  0  0  0  0  0  0  0  0  0
   -0.9404   -2.4645    0.3065 N   0  0  0  0  0  0  0  0  0  0  0  0
   -1.9361   -1.5133    0.1368 C   0  0  0  0  0  0  0  0  0  0  0  0
   -1.7331   -0.2227   -0.1832 C   0  0  0  0  0  0  0  0  0  0  0  0
   -2.8663    0.7115   -0.3253 C   0  0  0  0  0  0  0  0  0  0  0  0
   -3.9662    0.3957   -1.1389 C   0  0  0  0  0  0  0  0  0  0  0  0
   -5.0415    1.2801   -1.2609 C   0  0  0  0  0  0  0  0  0  0  0  0
   -5.0291    2.4922   -0.5748 C   0  0  0  0  0  0  0  0  0  0  0  0
   -3.9409    2.8228    0.2296 C   0  0  0  0  0  0  0  0  0  0  0  0
   -2.8659    1.9386    0.3528 C   0  0  0  0  0  0  0  0  0  0  0  0
   -0.3030    0.2167   -0.3432 C   0  0  0  0  0  0  0  0  0  0  0  0
   -0.0208    1.3747   -0.6465 O   0  0  0  0  0  0  0  0  0  0  0  0
    0.7779   -0.8056   -0.1152 C   0  0  0  0  0  0  0  0  0  0  0  0
    0.3791   -2.0509    0.1981 C   0  0  0  0  0  0  0  0  0  0  0  0
    2.2099   -0.4606   -0.1885 C   0  0  0  0  0  0  0  0  0  0  0  0
    3.0947   -1.2104   -0.9769 C   0  0  0  0  0  0  0  0  0  0  0  0
    4.4499   -0.8800   -1.0377 C   0  0  0  0  0  0  0  0  0  0  0  0
    4.9367    0.2084   -0.3150 C   0  0  0  0  0  0  0  0  0  0  0  0
    4.0714    0.9839    0.4700 C   0  0  0  0  0  0  0  0  0  0  0  0
    2.7118    0.6342    0.5306 C   0  0  0  0  0  0  0  0  0  0  0  0
    4.6006    2.1548    1.2594 C   0  0  0  0  0  0  0  0  0  0  0  0
    5.2123    1.7618    2.4117 F   0  0  0  0  0  0  0  0  0  0  0  0
    5.5298    2.8794    0.5749 F   0  0  0  0  0  0  0  0  0  0  0  0
    3.6376    3.0422    1.6336 F   0  0  0  0  0  0  0  0  0  0  0  0
  1  2  1  0
  2  3  1  0
  3  4  2  0
  4  5  1  0
  5  6  2  0
  6  7  1  0
  7  8  2  0
  8  9  1  0
  9 10  2  0
  4 11  1  0
 11 12  2  0
 11 13  1  0
 13 14  2  0
 13 15  1  0
 15 16  2  0
 16 17  1  0
 17 18  2  0
 18 19  1  0
 19 20  2  0
 19 21  1  0
 21 22  1  0
 21 23  1  0
 21 24  1  0
 10  5  1  0
 14  2  1  0
 20 15  1  0
M  END
>  <target>  (623) 
-4.445

$$$$

     RDKit          3D

 19 22  0  0  0  0  0  0  0  0999 V2000
   -2.1088    2.8040   -1.0496 N   0  0  0  0  0  0  0  0  0  0  0  0
   -1.5452    1.5648   -0.6653 C   0  0  0  0  0  0  0  0  0  0  0  0
   -0.1515    1.5013   -0.5395 C   0  0  0  0  0  0  0  0  0  0  0  0
    0.5431    0.3506   -0.1139 C   0  0  0  0  0  0  0  0  0  0  0  0
    1.9890    0.3013   -0.0447 C   0  0  0  0  0  0  0  0  0  0  0  0
    2.8547    1.3799   -0.3732 C   0  0  0  0  0  0  0  0  0  0  0  0
    4.2480    1.2810   -0.2925 C   0  0  0  0  0  0  0  0  0  0  0  0
    4.8328    0.0957    0.1208 C   0  0  0  0  0  0  0  0  0  0  0  0
    4.0223   -0.9850    0.4523 C   0  0  0  0  0  0  0  0  0  0  0  0
    2.6214   -0.8924    0.3741 C   0  0  0  0  0  0  0  0  0  0  0  0
    1.8474   -1.9953    0.7143 C   0  0  0  0  0  0  0  0  0  0  0  0
    0.4559   -1.9350    0.6532 C   0  0  0  0  0  0  0  0  0  0  0  0
   -0.2428   -0.7767    0.2475 C   0  0  0  0  0  0  0  0  0  0  0  0
   -1.6869   -0.7104    0.2100 C   0  0  0  0  0  0  0  0  0  0  0  0
   -2.5296   -1.7866    0.6043 C   0  0  0  0  0  0  0  0  0  0  0  0
   -3.9237   -1.7042    0.5965 C   0  0  0  0  0  0  0  0  0  0  0  0
   -4.5350   -0.5322    0.1980 C   0  0  0  0  0  0  0  0  0  0  0  0
   -3.7473    0.5435   -0.2037 C   0  0  0  0  0  0  0  0  0  0  0  0
   -2.3308    0.4798   -0.2236 C   0  0  0  0  0  0  0  0  0  0  0  0
  1  2  1  0
  2  3  2  0
  3  4  1  0
  4  5  2  0
  5  6  1  0
  6  7  2  0
  7  8  1  0
  8  9  2  0
  9 10  1  0
 10 11  2  0
 11 12  1  0
 12 13  2  0
 13 14  1  0
 14 15  2  0
 15 16  1  0
 16 17  2  0
 17 18  1  0
 18 19  2  0
 10  5  1  0
 13  4  1  0
 19  2  1  0
 19 14  1  0
M  END
>  <target>  (624) 
-6.2

$$$$

     RDKit          3D

 20 23  0  0  0  0  0  0  0  0999 V2000
   -2.7447   -1.7260   -0.0759 C   0  0  0  0  0  0  0  0  0  0  0  0
   -2.4819   -0.2190   -0.0696 C   0  0  0  0  0  0  0  0  0  0  0  0
   -1.9930    0.2719    1.3000 C   0  0  0  0  0  0  0  0  0  0  0  0
   -0.5060    0.0297    1.5259 C   0  0  0  0  0  0  0  0  0  0  0  0
    0.3471    0.6870    0.4271 C   0  0  0  0  0  0  0  0  0  0  0  0
   -0.0511    0.1949   -0.9838 C   0  0  0  0  0  0  0  0  0  0  0  0
    0.5360   -1.2027   -1.2407 C   0  0  0  0  0  0  0  0  0  0  0  0
    2.0614   -1.1553   -1.2154 C   0  0  0  0  0  0  0  0  0  0  0  0
    2.6161   -0.4066   -0.0310 C   0  0  0  0  0  0  0  0  0  0  0  0
    3.9759   -0.5615    0.2857 C   0  0  0  0  0  0  0  0  0  0  0  0
    4.5325    0.1525    1.3418 C   0  0  0  0  0  0  0  0  0  0  0  0
    5.8469    0.0180    1.6755 O   0  0  0  0  0  0  0  0  0  0  0  0
    3.7639    1.0319    2.0879 C   0  0  0  0  0  0  0  0  0  0  0  0
    2.4162    1.2003    1.7761 C   0  0  0  0  0  0  0  0  0  0  0  0
    1.8259    0.4857    0.7181 C   0  0  0  0  0  0  0  0  0  0  0  0
   -1.5724    0.2323   -1.2395 C   0  0  0  0  0  0  0  0  0  0  0  0
   -2.0626    1.6569   -1.5523 C   0  0  0  0  0  0  0  0  0  0  0  0
   -3.5785    1.5624   -1.4773 C   0  0  0  0  0  0  0  0  0  0  0  0
   -3.7730    0.5240   -0.4046 C   0  0  0  0  0  0  0  0  0  0  0  0
   -4.8541    0.3082    0.1304 O   0  0  0  0  0  0  0  0  0  0  0  0
  1  2  1  0
  2  3  1  0
  3  4  1  0
  4  5  1  0
  5  6  1  0
  6  7  1  0
  7  8  1  0
  8  9  1  0
  9 10  2  0
 10 11  1  0
 11 12  1  0
 11 13  2  0
 13 14  1  0
 14 15  2  0
  6 16  1  0
 16 17  1  0
 17 18  1  0
 18 19  1  0
 19 20  2  0
 19  2  1  0
 16  2  1  0
 15  5  1  0
 15  9  1  0
M  END
>  <target>  (625) 
-3.955

$$$$

     RDKit          3D

 19 21  0  0  0  0  0  0  0  0999 V2000
   -2.4371   -0.7266   -2.1862 C   0  0  0  0  0  0  0  0  0  0  0  0
   -1.5112   -1.4624   -1.2196 C   0  0  0  0  0  0  0  0  0  0  0  0
   -0.6507   -0.5211   -0.4826 N   0  0  0  0  0  0  0  0  0  0  0  0
    0.6012   -1.0107   -0.0216 C   0  0  0  0  0  0  0  0  0  0  0  0
    0.8091   -2.3862    0.2218 C   0  0  0  0  0  0  0  0  0  0  0  0
    2.0230   -2.8720    0.7090 C   0  0  0  0  0  0  0  0  0  0  0  0
    3.0590   -1.9912    0.9744 C   0  0  0  0  0  0  0  0  0  0  0  0
    2.8803   -0.6270    0.7465 C   0  0  0  0  0  0  0  0  0  0  0  0
    1.6638   -0.1120    0.2512 C   0  0  0  0  0  0  0  0  0  0  0  0
    1.5711    1.2991   -0.0421 N   0  0  0  0  0  0  0  0  0  0  0  0
    2.8104    1.9231   -0.5431 C   0  0  0  0  0  0  0  0  0  0  0  0
    0.3939    2.0721    0.1224 C   0  0  0  0  0  0  0  0  0  0  0  0
    0.2547    3.6836   -0.4264 S   0  0  0  0  0  0  0  0  0  0  0  0
   -0.7742    1.4924    0.8584 C   0  0  0  0  0  0  0  0  0  0  0  0
   -1.3879    2.2097    1.8982 C   0  0  0  0  0  0  0  0  0  0  0  0
   -2.5622    1.7337    2.4674 C   0  0  0  0  0  0  0  0  0  0  0  0
   -3.0913    0.5604    1.9686 C   0  0  0  0  0  0  0  0  0  0  0  0
   -2.5177   -0.1618    0.9822 N   0  0  0  0  0  0  0  0  0  0  0  0
   -1.3512    0.2907    0.4431 C   0  0  0  0  0  0  0  0  0  0  0  0
  1  2  1  0
  2  3  1  0
  3  4  1  0
  4  5  2  0
  5  6  1  0
  6  7  2  0
  7  8  1  0
  8  9  2  0
  9 10  1  0
 10 11  1  0
 10 12  1  0
 12 13  2  0
 12 14  1  0
 14 15  2  0
 15 16  1  0
 16 17  2  0
 17 18  1  0
 18 19  2  0
  9  4  1  0
 19  3  1  0
 19 14  1  0
M  END
>  <target>  (626) 
-4.706

$$$$

     RDKit          3D

  4  4  0  0  0  0  0  0  0  0999 V2000
    1.1867   -0.2453   -0.2615 C   0  0  0  0  0  0  0  0  0  0  0  0
   -0.0024    0.4985    0.2313 C   0  0  0  0  0  0  0  0  0  0  0  0
   -1.3776   -0.1105    0.1913 C   0  0  0  0  0  0  0  0  0  0  0  0
   -0.9463    0.8499   -0.7858 O   0  0  0  0  0  0  0  0  0  0  0  0
  1  2  1  0
  2  3  1  0
  3  4  1  0
  4  2  1  0
M  END
>  <target>  (627) 
-0.59

$$$$

     RDKit          3D

 21 23  0  0  0  0  0  0  0  0999 V2000
   -0.8911   -4.5483    0.4070 O   0  0  0  0  0  0  0  0  0  0  0  0
   -0.9050   -3.3599    0.0832 C   0  0  0  0  0  0  0  0  0  0  0  0
   -0.3709   -2.8667   -1.2497 C   0  0  0  0  0  0  0  0  0  0  0  0
    0.7410   -1.9469   -1.0500 N   0  0  0  0  0  0  0  0  0  0  0  0
    0.5286   -0.7928   -0.5171 C   0  0  0  0  0  0  0  0  0  0  0  0
    1.7250    0.0877   -0.3258 C   0  0  0  0  0  0  0  0  0  0  0  0
    1.8965    0.8310    0.8489 C   0  0  0  0  0  0  0  0  0  0  0  0
    3.0206    1.6457    0.9981 C   0  0  0  0  0  0  0  0  0  0  0  0
    3.9769    1.7106   -0.0156 C   0  0  0  0  0  0  0  0  0  0  0  0
    3.8188    0.9546   -1.1770 C   0  0  0  0  0  0  0  0  0  0  0  0
    2.6973    0.1387   -1.3312 C   0  0  0  0  0  0  0  0  0  0  0  0
   -0.8056   -0.2856   -0.0714 C   0  0  0  0  0  0  0  0  0  0  0  0
   -1.1178    1.0626   -0.3236 C   0  0  0  0  0  0  0  0  0  0  0  0
   -2.2752    1.6256    0.2274 C   0  0  0  0  0  0  0  0  0  0  0  0
   -3.1195    0.8596    1.0365 C   0  0  0  0  0  0  0  0  0  0  0  0
   -2.8198   -0.4864    1.2624 C   0  0  0  0  0  0  0  0  0  0  0  0
   -1.6905   -1.0798    0.6781 C   0  0  0  0  0  0  0  0  0  0  0  0
   -1.5290   -2.4541    0.9018 N   0  0  0  0  0  0  0  0  0  0  0  0
   -2.5929    3.0371   -0.0266 N   0  0  0  0  0  0  0  0  0  0  0  0
   -3.6175    3.4979    0.4949 O   0  0  0  0  0  0  0  0  0  0  0  0
   -1.8162    3.6803   -0.7451 O   0  0  0  0  0  0  0  0  0  0  0  0
  1  2  2  0
  2  3  1  0
  3  4  1  0
  4  5  2  0
  5  6  1  0
  6  7  2  0
  7  8  1  0
  8  9  2  0
  9 10  1  0
 10 11  2  0
  5 12  1  0
 12 13  2  0
 13 14  1  0
 14 15  2  0
 15 16  1  0
 16 17  2  0
 17 18  1  0
 14 19  1  0
 19 20  1  0
 19 21  2  0
 11  6  1  0
 17 12  1  0
 18  2  1  0
M  CHG  2  19   1  20  -1
M  END
>  <target>  (628) 
-3.7960000000000003

$$$$

     RDKit          3D

  8  7  0  0  0  0  0  0  0  0999 V2000
   -2.4242   -0.3380    0.7617 C   0  0  0  0  0  0  0  0  0  0  0  0
   -1.9370   -0.9384   -0.5447 C   0  0  0  0  0  0  0  0  0  0  0  0
   -1.3312    0.0604   -1.4098 N   0  0  0  0  0  0  0  0  0  0  0  0
   -0.1175    0.6703   -1.3095 C   0  0  0  0  0  0  0  0  0  0  0  0
    0.1813    1.9683   -2.3149 S   0  0  0  0  0  0  0  0  0  0  0  0
    0.7302    0.1697   -0.3637 N   0  0  0  0  0  0  0  0  0  0  0  0
    2.0938    0.6258   -0.1276 C   0  0  0  0  0  0  0  0  0  0  0  0
    2.6564    0.0324    1.1504 C   0  0  0  0  0  0  0  0  0  0  0  0
  1  2  1  0
  2  3  1  0
  3  4  1  0
  4  5  2  0
  4  6  1  0
  6  7  1  0
  7  8  1  0
M  END
>  <target>  (629) 
-1.46

$$$$

     RDKit          3D

 10 10  0  0  0  0  0  0  0  0999 V2000
   -1.8404   -1.7282   -0.0710 O   0  0  0  0  0  0  0  0  0  0  0  0
   -0.8587   -0.7738   -0.0409 C   0  0  0  0  0  0  0  0  0  0  0  0
   -1.2172    0.5100   -0.4421 C   0  0  0  0  0  0  0  0  0  0  0  0
   -0.2587    1.5195   -0.4312 C   0  0  0  0  0  0  0  0  0  0  0  0
   -0.6889    3.1102   -0.9246 Cl  0  0  0  0  0  0  0  0  0  0  0  0
    1.0483    1.2535   -0.0238 C   0  0  0  0  0  0  0  0  0  0  0  0
    1.4024   -0.0387    0.3782 C   0  0  0  0  0  0  0  0  0  0  0  0
    3.0376   -0.3034    0.8716 Cl  0  0  0  0  0  0  0  0  0  0  0  0
    0.4477   -1.0628    0.3718 C   0  0  0  0  0  0  0  0  0  0  0  0
    0.8245   -2.6805    0.8576 Cl  0  0  0  0  0  0  0  0  0  0  0  0
  1  2  1  0
  2  3  2  0
  3  4  1  0
  4  5  1  0
  4  6  2  0
  6  7  1  0
  7  8  1  0
  7  9  2  0
  9 10  1  0
  9  2  1  0
M  END
>  <target>  (630) 
-2.67

$$$$

     RDKit          3D

  8  7  0  0  0  0  0  0  0  0999 V2000
   -3.3309   -0.3346    0.6940 C   0  0  0  0  0  0  0  0  0  0  0  0
   -2.1780    0.4885    0.1420 C   0  0  0  0  0  0  0  0  0  0  0  0
   -0.8596   -0.2811    0.2056 C   0  0  0  0  0  0  0  0  0  0  0  0
    0.2963    0.5489   -0.3498 C   0  0  0  0  0  0  0  0  0  0  0  0
    1.6075   -0.1998   -0.2933 C   0  0  0  0  0  0  0  0  0  0  0  0
    1.7619   -1.3333    0.1379 O   0  0  0  0  0  0  0  0  0  0  0  0
    2.5991    0.5875   -0.8003 O   0  0  0  0  0  0  0  0  0  0  0  0
    3.8880   -0.0276   -0.7939 C   0  0  0  0  0  0  0  0  0  0  0  0
  1  2  1  0
  2  3  1  0
  3  4  1  0
  4  5  1  0
  5  6  2  0
  5  7  1  0
  7  8  1  0
M  END
>  <target>  (631) 
-1.34

$$$$

     RDKit          3D

  7  7  0  0  0  0  0  0  0  0999 V2000
    2.3204   -0.0744   -0.0063 N   0  0  0  0  0  0  0  0  0  0  0  0
    0.9221   -0.0351    0.0565 C   0  0  0  0  0  0  0  0  0  0  0  0
    0.1754   -1.2004   -0.1358 C   0  0  0  0  0  0  0  0  0  0  0  0
   -1.2202   -1.1531   -0.1914 C   0  0  0  0  0  0  0  0  0  0  0  0
   -1.8800    0.0699   -0.0973 C   0  0  0  0  0  0  0  0  0  0  0  0
   -1.1426    1.2443    0.0333 C   0  0  0  0  0  0  0  0  0  0  0  0
    0.2527    1.1910    0.0884 C   0  0  0  0  0  0  0  0  0  0  0  0
  1  2  1  0
  2  3  2  0
  3  4  1  0
  4  5  2  0
  5  6  1  0
  6  7  2  0
  7  2  1  0
M  END
>  <target>  (632) 
-0.41

$$$$

     RDKit          3D

 12 13  0  0  0  0  0  0  0  0999 V2000
   -3.1228    0.6817   -0.0084 C   0  0  0  0  0  0  0  0  0  0  0  0
   -1.8720   -0.1590   -0.0519 C   0  0  0  0  0  0  0  0  0  0  0  0
   -2.0150   -1.5492   -0.1695 C   0  0  0  0  0  0  0  0  0  0  0  0
   -0.8981   -2.3707   -0.2142 C   0  0  0  0  0  0  0  0  0  0  0  0
    0.3763   -1.8124   -0.1417 C   0  0  0  0  0  0  0  0  0  0  0  0
    0.5738   -0.4200   -0.0228 C   0  0  0  0  0  0  0  0  0  0  0  0
    1.8720    0.1590    0.0519 C   0  0  0  0  0  0  0  0  0  0  0  0
    3.1228   -0.6817    0.0084 C   0  0  0  0  0  0  0  0  0  0  0  0
    2.0150    1.5492    0.1695 C   0  0  0  0  0  0  0  0  0  0  0  0
    0.8981    2.3707    0.2142 C   0  0  0  0  0  0  0  0  0  0  0  0
   -0.3763    1.8124    0.1417 C   0  0  0  0  0  0  0  0  0  0  0  0
   -0.5738    0.4200    0.0228 C   0  0  0  0  0  0  0  0  0  0  0  0
  1  2  1  0
  2  3  2  0
  3  4  1  0
  4  5  2  0
  5  6  1  0
  6  7  2  0
  7  8  1  0
  7  9  1  0
  9 10  2  0
 10 11  1  0
 11 12  2  0
 12  2  1  0
 12  6  1  0
M  END
>  <target>  (633) 
-4.678999999999999

$$$$

     RDKit          3D

 17 18  0  0  0  0  0  0  0  0999 V2000
    3.5887   -1.4901    0.2211 N   0  0  0  0  0  0  0  0  0  0  0  0
    3.4157    0.1344   -0.1857 S   0  0  0  0  0  0  0  0  0  0  0  0
    3.8893    0.2254   -1.5458 O   0  0  0  0  0  0  0  0  0  0  0  0
    4.0073    0.8515    0.9182 O   0  0  0  0  0  0  0  0  0  0  0  0
    1.6759    0.4178   -0.1737 C   0  0  0  0  0  0  0  0  0  0  0  0
    0.7919   -0.6290    0.1049 C   0  0  0  0  0  0  0  0  0  0  0  0
   -0.5849   -0.3767    0.1151 C   0  0  0  0  0  0  0  0  0  0  0  0
   -1.1165    0.8912   -0.1297 C   0  0  0  0  0  0  0  0  0  0  0  0
   -2.4900    1.1450   -0.2271 N   0  0  0  0  0  0  0  0  0  0  0  0
   -3.3905    0.2289    0.4326 C   0  0  0  0  0  0  0  0  0  0  0  0
   -3.1521   -1.0899   -0.0832 N   0  0  0  0  0  0  0  0  0  0  0  0
   -1.6869   -1.7160    0.4175 S   0  0  0  0  0  0  0  0  0  0  0  0
   -1.7347   -1.9095    1.8489 O   0  0  0  0  0  0  0  0  0  0  0  0
   -1.3526   -2.7816   -0.4999 O   0  0  0  0  0  0  0  0  0  0  0  0
   -0.2108    1.9131   -0.4463 C   0  0  0  0  0  0  0  0  0  0  0  0
    1.1768    1.6911   -0.4555 C   0  0  0  0  0  0  0  0  0  0  0  0
    2.1785    3.0445   -0.8386 Cl  0  0  0  0  0  0  0  0  0  0  0  0
  1  2  1  0
  2  3  2  0
  2  4  2  0
  2  5  1  0
  5  6  2  0
  6  7  1  0
  7  8  2  0
  8  9  1  0
  9 10  1  0
 10 11  1  0
 11 12  1  0
 12 13  2  0
 12 14  2  0
  8 15  1  0
 15 16  2  0
 16 17  1  0
 12  7  1  0
 16  5  1  0
M  END
>  <target>  (634) 
-2.63

$$$$

     RDKit          3D

 12 14  0  0  0  0  0  0  0  0999 V2000
   -1.4068    1.9950    0.0727 C   0  0  0  0  0  0  0  0  0  0  0  0
   -0.1400    2.4380   -0.0347 C   0  0  0  0  0  0  0  0  0  0  0  0
    0.7354    1.2743   -0.0814 C   0  0  0  0  0  0  0  0  0  0  0  0
    2.1051    1.1241   -0.1857 C   0  0  0  0  0  0  0  0  0  0  0  0
    2.6360   -0.1793   -0.2028 C   0  0  0  0  0  0  0  0  0  0  0  0
    1.7990   -1.3137   -0.1161 C   0  0  0  0  0  0  0  0  0  0  0  0
    0.4031   -1.1551   -0.0099 C   0  0  0  0  0  0  0  0  0  0  0  0
   -0.5907   -2.1492    0.0865 C   0  0  0  0  0  0  0  0  0  0  0  0
   -1.9512   -1.7832    0.1860 C   0  0  0  0  0  0  0  0  0  0  0  0
   -2.3465   -0.4324    0.1916 C   0  0  0  0  0  0  0  0  0  0  0  0
   -1.3680    0.5388    0.0969 C   0  0  0  0  0  0  0  0  0  0  0  0
   -0.0561    0.1607    0.0014 C   0  0  0  0  0  0  0  0  0  0  0  0
  1  2  2  0
  2  3  1  0
  3  4  2  0
  4  5  1  0
  5  6  2  0
  6  7  1  0
  7  8  2  0
  8  9  1  0
  9 10  2  0
 10 11  1  0
 11 12  2  0
 11  1  1  0
 12  3  1  0
 12  7  1  0
M  END
>  <target>  (635) 
-3.96

$$$$

     RDKit          3D

 10  9  0  0  0  0  0  0  0  0999 V2000
   -4.7764    0.1668   -0.3158 C   0  0  0  0  0  0  0  0  0  0  0  0
   -3.4531    0.4542    0.3755 C   0  0  0  0  0  0  0  0  0  0  0  0
   -2.2684   -0.0334   -0.4579 C   0  0  0  0  0  0  0  0  0  0  0  0
   -0.9414    0.2571    0.2397 C   0  0  0  0  0  0  0  0  0  0  0  0
    0.2463   -0.2264   -0.5852 C   0  0  0  0  0  0  0  0  0  0  0  0
    1.4450    0.0838    0.1382 O   0  0  0  0  0  0  0  0  0  0  0  0
    2.5928   -0.2976   -0.4917 C   0  0  0  0  0  0  0  0  0  0  0  0
    2.6457   -0.8572   -1.5774 O   0  0  0  0  0  0  0  0  0  0  0  0
    3.7800    0.0797    0.3613 C   0  0  0  0  0  0  0  0  0  0  0  0
    5.0956   -0.3183   -0.2844 C   0  0  0  0  0  0  0  0  0  0  0  0
  1  2  1  0
  2  3  1  0
  3  4  1  0
  4  5  1  0
  5  6  1  0
  6  7  1  0
  7  8  2  0
  7  9  1  0
  9 10  1  0
M  END
>  <target>  (636) 
-1.28

$$$$

     RDKit          3D

 15 15  0  0  0  0  0  0  0  0999 V2000
    3.7199   -1.0811   -2.1006 C   0  0  0  0  0  0  0  0  0  0  0  0
    2.5877   -0.8746   -1.1066 C   0  0  0  0  0  0  0  0  0  0  0  0
    1.9775    0.4230   -1.3366 N   0  0  0  0  0  0  0  0  0  0  0  0
    0.9712    0.7582   -0.4361 C   0  0  0  0  0  0  0  0  0  0  0  0
    0.1883   -0.1826    0.0745 N   0  0  0  0  0  0  0  0  0  0  0  0
   -0.7504    0.2257    0.9183 C   0  0  0  0  0  0  0  0  0  0  0  0
   -1.6086   -0.6890    1.5098 N   0  0  0  0  0  0  0  0  0  0  0  0
   -1.9732   -1.8656    0.7315 C   0  0  0  0  0  0  0  0  0  0  0  0
   -2.6123   -2.8806    1.6802 C   0  0  0  0  0  0  0  0  0  0  0  0
   -2.9545   -1.5001   -0.3824 C   0  0  0  0  0  0  0  0  0  0  0  0
   -0.9414    1.4868    1.2625 N   0  0  0  0  0  0  0  0  0  0  0  0
   -0.1070    2.3464    0.6961 C   0  0  0  0  0  0  0  0  0  0  0  0
   -0.3157    3.6608    1.0616 O   0  0  0  0  0  0  0  0  0  0  0  0
    0.5534    4.5725    0.4036 C   0  0  0  0  0  0  0  0  0  0  0  0
    0.8688    2.0460   -0.1534 N   0  0  0  0  0  0  0  0  0  0  0  0
  1  2  1  0
  2  3  1  0
  3  4  1  0
  4  5  2  0
  5  6  1  0
  6  7  1  0
  7  8  1  0
  8  9  1  0
  8 10  1  0
  6 11  2  0
 11 12  1  0
 12 13  1  0
 13 14  1  0
 12 15  2  0
 15  4  1  0
M  END
>  <target>  (637) 
-2.084

$$$$

     RDKit          3D

 20 24  0  0  0  0  0  0  0  0999 V2000
    4.7460    0.3010   -0.2787 C   0  0  0  0  0  0  0  0  0  0  0  0
    4.4115   -1.0409   -0.1931 C   0  0  0  0  0  0  0  0  0  0  0  0
    3.0688   -1.4194   -0.0996 C   0  0  0  0  0  0  0  0  0  0  0  0
    2.0122   -0.4724   -0.0882 C   0  0  0  0  0  0  0  0  0  0  0  0
    2.3837    0.8917   -0.1770 C   0  0  0  0  0  0  0  0  0  0  0  0
    3.7373    1.2601   -0.2706 C   0  0  0  0  0  0  0  0  0  0  0  0
    1.4007    1.8864   -0.1721 C   0  0  0  0  0  0  0  0  0  0  0  0
    0.0424    1.5715   -0.0809 C   0  0  0  0  0  0  0  0  0  0  0  0
   -0.9222    2.5885   -0.0782 C   0  0  0  0  0  0  0  0  0  0  0  0
   -2.2803    2.2867    0.0124 C   0  0  0  0  0  0  0  0  0  0  0  0
   -2.7071    0.9588    0.1025 C   0  0  0  0  0  0  0  0  0  0  0  0
   -4.0710    0.6443    0.1940 C   0  0  0  0  0  0  0  0  0  0  0  0
   -4.4890   -0.6815    0.2835 C   0  0  0  0  0  0  0  0  0  0  0  0
   -3.5477   -1.7083    0.2825 C   0  0  0  0  0  0  0  0  0  0  0  0
   -2.1775   -1.4208    0.1920 C   0  0  0  0  0  0  0  0  0  0  0  0
   -1.2259   -2.4400    0.1901 C   0  0  0  0  0  0  0  0  0  0  0  0
    0.1369   -2.1411    0.0994 C   0  0  0  0  0  0  0  0  0  0  0  0
    0.6171   -0.8138    0.0064 C   0  0  0  0  0  0  0  0  0  0  0  0
   -0.3568    0.2203    0.0088 C   0  0  0  0  0  0  0  0  0  0  0  0
   -1.7451   -0.0803    0.1010 C   0  0  0  0  0  0  0  0  0  0  0  0
  1  2  2  0
  2  3  1  0
  3  4  2  0
  4  5  1  0
  5  6  2  0
  5  7  1  0
  7  8  2  0
  8  9  1  0
  9 10  2  0
 10 11  1  0
 11 12  2  0
 12 13  1  0
 13 14  2  0
 14 15  1  0
 15 16  2  0
 16 17  1  0
 17 18  2  0
 18 19  1  0
 19 20  2  0
  6  1  1  0
 18  4  1  0
 19  8  1  0
 20 11  1  0
 20 15  1  0
M  END
>  <target>  (638) 
-8.699

$$$$

     RDKit          3D

  3  2  0  0  0  0  0  0  0  0999 V2000
   -0.7794    0.1754    0.0056 C   0  0  0  0  0  0  0  0  0  0  0  0
    0.6421   -0.3308    0.0797 C   0  0  0  0  0  0  0  0  0  0  0  0
    1.8570    0.9984   -0.6540 Br  0  0  0  0  0  0  0  0  0  0  0  0
  1  2  1  0
  2  3  1  0
M  END
>  <target>  (639) 
-1.09

$$$$

     RDKit          3D

  6  5  0  0  0  0  0  0  0  0999 V2000
    2.4996    1.0265    0.4213 C   0  0  0  0  0  0  0  0  0  0  0  0
    2.1386   -0.4437    0.2938 C   0  0  0  0  0  0  0  0  0  0  0  0
    0.6863   -0.6270    0.1729 C   0  0  0  0  0  0  0  0  0  0  0  0
   -0.5014   -0.7775    0.0739 C   0  0  0  0  0  0  0  0  0  0  0  0
   -1.9535   -0.9625   -0.0472 C   0  0  0  0  0  0  0  0  0  0  0  0
   -2.6834    0.3695   -0.0106 C   0  0  0  0  0  0  0  0  0  0  0  0
  1  2  1  0
  2  3  1  0
  3  4  3  0
  4  5  1  0
  5  6  1  0
M  END
>  <target>  (640) 
-1.99

$$$$

     RDKit          3D

 54 61  0  0  0  0  0  0  0  0999 V2000
    4.7433    1.6699   -0.5370 C   0  0  0  0  0  0  0  0  0  0  0  0
    5.2447    0.2266   -0.4720 C   0  0  0  0  0  0  0  0  0  0  0  0
    6.4962    0.2946    0.2231 O   0  0  0  0  0  0  0  0  0  0  0  0
    7.4791   -0.7231    0.0262 C   0  0  0  0  0  0  0  0  0  0  0  0
    7.6043   -1.2495   -1.4053 C   0  0  0  0  0  0  0  0  0  0  0  0
    6.7595   -0.4452   -2.3775 C   0  0  0  0  0  0  0  0  0  0  0  0
    6.7984   -1.0855   -3.6591 O   0  0  0  0  0  0  0  0  0  0  0  0
    5.3167   -0.3740   -1.8851 C   0  0  0  0  0  0  0  0  0  0  0  0
    4.7736   -1.7112   -1.8792 O   0  0  0  0  0  0  0  0  0  0  0  0
    7.4746   -1.7705    1.0149 O   0  0  0  0  0  0  0  0  0  0  0  0
    6.2382   -2.4808    1.0672 C   0  0  0  0  0  0  0  0  0  0  0  0
    6.4192   -3.9787    0.8118 C   0  0  0  0  0  0  0  0  0  0  0  0
    7.4573   -4.5260    1.6309 O   0  0  0  0  0  0  0  0  0  0  0  0
    5.1111   -4.7451    1.0356 C   0  0  0  0  0  0  0  0  0  0  0  0
    3.9303   -3.8051    1.3199 C   0  0  0  0  0  0  0  0  0  0  0  0
    4.2385   -3.0236    2.4775 O   0  0  0  0  0  0  0  0  0  0  0  0
    5.4265   -2.2144    2.3525 C   0  0  0  0  0  0  0  0  0  0  0  0
    6.2327   -2.3895    3.6362 C   0  0  0  0  0  0  0  0  0  0  0  0
    3.6233   -2.9245    0.2448 O   0  0  0  0  0  0  0  0  0  0  0  0
    2.8997   -3.4886   -0.8571 C   0  0  0  0  0  0  0  0  0  0  0  0
    3.3681   -2.7208   -2.1098 C   0  0  0  0  0  0  0  0  0  0  0  0
    4.7742   -2.8982   -2.3407 O   0  0  0  0  0  0  0  0  0  0  0  0
    3.0912   -1.2229   -1.9753 C   0  0  0  0  0  0  0  0  0  0  0  0
    1.8259   -0.9477   -1.1590 C   0  0  0  0  0  0  0  0  0  0  0  0
    1.2650    0.2690   -1.6490 O   0  0  0  0  0  0  0  0  0  0  0  0
    0.0205    0.7086   -1.1049 C   0  0  0  0  0  0  0  0  0  0  0  0
   -0.1377    0.5363    0.4073 C   0  0  0  0  0  0  0  0  0  0  0  0
   -1.4681    1.1140    0.8941 C   0  0  0  0  0  0  0  0  0  0  0  0
   -2.7153    0.5331    0.1562 C   0  0  0  0  0  0  0  0  0  0  0  0
   -2.8609   -0.9544    0.5657 C   0  0  0  0  0  0  0  0  0  0  0  0
   -2.5024    0.6896   -1.3766 C   0  0  0  0  0  0  0  0  0  0  0  0
   -3.6697    0.1150   -2.1907 C   0  0  0  0  0  0  0  0  0  0  0  0
   -5.0385    0.3163   -1.5400 C   0  0  0  0  0  0  0  0  0  0  0  0
   -5.0804    1.4885   -0.5450 C   0  0  0  0  0  0  0  0  0  0  0  0
   -3.9824    1.3847    0.5580 C   0  0  0  0  0  0  0  0  0  0  0  0
   -4.5750    1.0315    1.9214 C   0  0  0  0  0  0  0  0  0  0  0  0
   -5.5687    2.0903    2.3947 C   0  0  0  0  0  0  0  0  0  0  0  0
   -6.5950    2.5602    1.3323 C   0  0  0  0  0  0  0  0  0  0  0  0
   -7.9992    2.4746    1.9849 C   0  0  0  0  0  0  0  0  0  0  0  0
   -6.3005    4.0017    0.7980 C   0  0  0  0  0  0  0  0  0  0  0  0
   -7.0627    4.0814   -0.5407 C   0  0  0  0  0  0  0  0  0  0  0  0
   -7.3072    2.6364   -0.9854 C   0  0  0  0  0  0  0  0  0  0  0  0
   -6.5291    1.7436    0.0037 C   0  0  0  0  0  0  0  0  0  0  0  0
   -7.2409    0.5144    0.1177 O   0  0  0  0  0  0  0  0  0  0  0  0
   -6.5237    5.1678    1.7213 C   0  0  0  0  0  0  0  0  0  0  0  0
   -5.5769    5.7772    2.4367 C   0  0  0  0  0  0  0  0  0  0  0  0
   -6.2150    6.8654    3.1725 C   0  0  0  0  0  0  0  0  0  0  0  0
   -5.6401    7.6197    3.9346 O   0  0  0  0  0  0  0  0  0  0  0  0
   -7.5380    6.8904    2.8675 O   0  0  0  0  0  0  0  0  0  0  0  0
   -7.8234    5.8547    1.9258 C   0  0  0  0  0  0  0  0  0  0  0  0
   -1.1644    0.1213   -1.8781 C   0  0  0  0  0  0  0  0  0  0  0  0
    0.9357   -2.0480   -1.3134 O   0  0  0  0  0  0  0  0  0  0  0  0
    1.3914   -3.2342   -0.6418 C   0  0  0  0  0  0  0  0  0  0  0  0
    0.5550   -4.3835   -1.1915 C   0  0  0  0  0  0  0  0  0  0  0  0
  1  2  1  0
  2  3  1  0
  3  4  1  0
  4  5  1  0
  5  6  1  0
  6  7  1  0
  6  8  1  0
  8  9  1  0
  4 10  1  0
 10 11  1  0
 11 12  1  0
 12 13  1  0
 12 14  1  0
 14 15  1  0
 15 16  1  0
 16 17  1  0
 17 18  1  0
 15 19  1  0
 19 20  1  0
 20 21  1  0
 21 22  1  0
 21 23  1  0
 23 24  1  0
 24 25  1  0
 25 26  1  0
 26 27  1  0
 27 28  1  0
 28 29  1  0
 29 30  1  0
 29 31  1  0
 31 32  1  0
 32 33  1  0
 33 34  1  0
 34 35  1  0
 35 36  1  0
 36 37  1  0
 37 38  1  0
 38 39  1  0
 38 40  1  0
 40 41  1  0
 41 42  1  0
 42 43  1  0
 43 44  1  0
 40 45  1  0
 45 46  2  0
 46 47  1  0
 47 48  2  0
 47 49  1  0
 49 50  1  0
 31 51  1  0
 24 52  1  0
 52 53  1  0
 53 54  1  0
  8  2  1  0
 17 11  1  0
 35 29  1  0
 43 34  1  0
 43 38  1  0
 50 45  1  0
 51 26  1  0
 53 20  1  0
M  END
>  <target>  (641) 
-5.292999999999999

$$$$

     RDKit          3D

  5  4  0  0  0  0  0  0  0  0999 V2000
    1.7923   -0.2656    0.3685 C   0  0  0  0  0  0  0  0  0  0  0  0
    0.7935    0.3590   -0.5954 C   0  0  0  0  0  0  0  0  0  0  0  0
   -0.6302    0.2754   -0.0971 C   0  0  0  0  0  0  0  0  0  0  0  0
   -1.3016    1.3680    0.3021 C   0  0  0  0  0  0  0  0  0  0  0  0
   -1.2730   -1.0834   -0.1033 C   0  0  0  0  0  0  0  0  0  0  0  0
  1  2  1  0
  2  3  1  0
  3  4  2  0
  3  5  1  0
M  END
>  <target>  (642) 
-2.73

$$$$

     RDKit          3D

 11 12  0  0  0  0  0  0  0  0999 V2000
   -1.4380    2.5033    0.3243 O   0  0  0  0  0  0  0  0  0  0  0  0
   -1.2569    1.1534    0.1367 C   0  0  0  0  0  0  0  0  0  0  0  0
   -2.3874    0.3538   -0.0010 C   0  0  0  0  0  0  0  0  0  0  0  0
   -2.2306   -1.0151   -0.1918 C   0  0  0  0  0  0  0  0  0  0  0  0
   -0.9483   -1.5654   -0.2424 C   0  0  0  0  0  0  0  0  0  0  0  0
    0.1878   -0.7453   -0.1017 C   0  0  0  0  0  0  0  0  0  0  0  0
    1.4903   -1.2595   -0.1467 C   0  0  0  0  0  0  0  0  0  0  0  0
    2.5769   -0.4040   -0.0021 C   0  0  0  0  0  0  0  0  0  0  0  0
    2.3263    0.9435    0.1837 C   0  0  0  0  0  0  0  0  0  0  0  0
    1.0874    1.4815    0.2335 N   0  0  0  0  0  0  0  0  0  0  0  0
    0.0377    0.6424    0.0919 C   0  0  0  0  0  0  0  0  0  0  0  0
  1  2  1  0
  2  3  2  0
  3  4  1  0
  4  5  2  0
  5  6  1  0
  6  7  2  0
  7  8  1  0
  8  9  2  0
  9 10  1  0
 10 11  2  0
 11  2  1  0
 11  6  1  0
M  END
>  <target>  (643) 
-2.42

$$$$

     RDKit          3D

 10 11  0  0  0  0  0  0  0  0999 V2000
   -2.1350   -0.7259    0.2523 C   0  0  0  0  0  0  0  0  0  0  0  0
   -2.1323    0.6103   -0.4789 C   0  0  0  0  0  0  0  0  0  0  0  0
   -0.9535    1.4670   -0.0209 C   0  0  0  0  0  0  0  0  0  0  0  0
    0.3535    0.7133    0.0124 C   0  0  0  0  0  0  0  0  0  0  0  0
    1.5544    1.4347    0.0884 C   0  0  0  0  0  0  0  0  0  0  0  0
    2.7795    0.7714    0.1518 C   0  0  0  0  0  0  0  0  0  0  0  0
    2.8175   -0.6198    0.1454 C   0  0  0  0  0  0  0  0  0  0  0  0
    1.6302   -1.3485    0.0807 C   0  0  0  0  0  0  0  0  0  0  0  0
    0.3908   -0.6931    0.0271 C   0  0  0  0  0  0  0  0  0  0  0  0
   -0.8698   -1.5164   -0.0759 C   0  0  0  0  0  0  0  0  0  0  0  0
  1  2  1  0
  2  3  1  0
  3  4  1  0
  4  5  2  0
  5  6  1  0
  6  7  2  0
  7  8  1  0
  8  9  2  0
  9 10  1  0
 10  1  1  0
  9  4  1  0
M  END
>  <target>  (644) 
-4.37

$$$$

     RDKit          3D

 24 27  0  0  0  0  0  0  0  0999 V2000
    4.6747   -2.7658    1.4169 O   0  0  0  0  0  0  0  0  0  0  0  0
    3.5072   -2.0914    1.2143 C   0  0  0  0  0  0  0  0  0  0  0  0
    3.2778   -0.8460    1.7827 C   0  0  0  0  0  0  0  0  0  0  0  0
    2.0578   -0.2022    1.5550 C   0  0  0  0  0  0  0  0  0  0  0  0
    1.0524   -0.7867    0.7528 C   0  0  0  0  0  0  0  0  0  0  0  0
    1.3200   -2.0500    0.1943 C   0  0  0  0  0  0  0  0  0  0  0  0
    2.5404   -2.6946    0.4223 C   0  0  0  0  0  0  0  0  0  0  0  0
   -0.2780   -0.0375    0.5567 C   0  0  0  0  0  0  0  0  0  0  0  0
   -0.8218    0.0738    1.9105 O   0  0  0  0  0  0  0  0  0  0  0  0
   -1.9953   -0.5963    2.0703 C   0  0  0  0  0  0  0  0  0  0  0  0
   -2.6389   -0.6974    3.0951 O   0  0  0  0  0  0  0  0  0  0  0  0
   -2.3532   -1.1287    0.7679 C   0  0  0  0  0  0  0  0  0  0  0  0
   -3.4942   -1.8339    0.4220 C   0  0  0  0  0  0  0  0  0  0  0  0
   -3.6448   -2.2053   -0.9134 C   0  0  0  0  0  0  0  0  0  0  0  0
   -2.6671   -1.8586   -1.8594 C   0  0  0  0  0  0  0  0  0  0  0  0
   -1.5257   -1.1440   -1.4791 C   0  0  0  0  0  0  0  0  0  0  0  0
   -1.3727   -0.7906   -0.1428 C   0  0  0  0  0  0  0  0  0  0  0  0
   -0.1073    1.3717   -0.0409 C   0  0  0  0  0  0  0  0  0  0  0  0
    0.7272    1.5846   -1.1567 C   0  0  0  0  0  0  0  0  0  0  0  0
    0.8545    2.8532   -1.7283 C   0  0  0  0  0  0  0  0  0  0  0  0
    0.1479    3.9233   -1.1973 C   0  0  0  0  0  0  0  0  0  0  0  0
    0.2964    5.1429   -1.7886 O   0  0  0  0  0  0  0  0  0  0  0  0
   -0.6853    3.7474   -0.0999 C   0  0  0  0  0  0  0  0  0  0  0  0
   -0.8139    2.4778    0.4721 C   0  0  0  0  0  0  0  0  0  0  0  0
  1  2  1  0
  2  3  2  0
  3  4  1  0
  4  5  2  0
  5  6  1  0
  6  7  2  0
  5  8  1  0
  8  9  1  0
  9 10  1  0
 10 11  2  0
 10 12  1  0
 12 13  2  0
 13 14  1  0
 14 15  2  0
 15 16  1  0
 16 17  2  0
  8 18  1  0
 18 19  2  0
 19 20  1  0
 20 21  2  0
 21 22  1  0
 21 23  1  0
 23 24  2  0
  7  2  1  0
 17  8  1  0
 17 12  1  0
 24 18  1  0
M  END
>  <target>  (645) 
-2.9

$$$$

     RDKit          3D

  9  9  0  0  0  0  0  0  0  0999 V2000
   -1.2570    3.0268   -0.1230 Br  0  0  0  0  0  0  0  0  0  0  0  0
   -0.5323    1.2817   -0.0521 C   0  0  0  0  0  0  0  0  0  0  0  0
   -1.3841    0.1792   -0.1044 C   0  0  0  0  0  0  0  0  0  0  0  0
   -0.8412   -1.1039   -0.0515 C   0  0  0  0  0  0  0  0  0  0  0  0
   -1.9865   -2.6068   -0.1216 Br  0  0  0  0  0  0  0  0  0  0  0  0
    0.5364   -1.2916    0.0525 C   0  0  0  0  0  0  0  0  0  0  0  0
    1.3735   -0.1779    0.1036 C   0  0  0  0  0  0  0  0  0  0  0  0
    3.2435   -0.4200    0.2446 Br  0  0  0  0  0  0  0  0  0  0  0  0
    0.8477    1.1124    0.0519 C   0  0  0  0  0  0  0  0  0  0  0  0
  1  2  1  0
  2  3  2  0
  3  4  1  0
  4  5  1  0
  4  6  2  0
  6  7  1  0
  7  8  1  0
  7  9  2  0
  9  2  1  0
M  END
>  <target>  (646) 
-5.6

$$$$

     RDKit          3D

 16 16  0  0  0  0  0  0  0  0999 V2000
   -2.6386   -1.1584   -1.9490 C   0  0  0  0  0  0  0  0  0  0  0  0
   -1.4262   -0.5804   -1.5063 O   0  0  0  0  0  0  0  0  0  0  0  0
   -1.4180    0.1883   -0.0795 P   0  0  0  0  0  0  0  0  0  0  0  0
   -1.8693   -0.8810    1.4753 S   0  0  0  0  0  0  0  0  0  0  0  0
   -2.3942    1.4403   -0.4023 O   0  0  0  0  0  0  0  0  0  0  0  0
   -2.4764    2.4851    0.5477 C   0  0  0  0  0  0  0  0  0  0  0  0
    0.0386    0.9039   -0.1066 O   0  0  0  0  0  0  0  0  0  0  0  0
    1.1795    0.2064    0.1836 C   0  0  0  0  0  0  0  0  0  0  0  0
    1.6536   -0.7584   -0.7042 C   0  0  0  0  0  0  0  0  0  0  0  0
    2.8286   -1.4561   -0.4073 C   0  0  0  0  0  0  0  0  0  0  0  0
    3.3634   -2.6438   -1.5421 Cl  0  0  0  0  0  0  0  0  0  0  0  0
    3.5300   -1.1769    0.7734 C   0  0  0  0  0  0  0  0  0  0  0  0
    4.9877   -2.0008    1.1991 Cl  0  0  0  0  0  0  0  0  0  0  0  0
    3.0596   -0.1959    1.6515 C   0  0  0  0  0  0  0  0  0  0  0  0
    1.8883    0.4990    1.3522 C   0  0  0  0  0  0  0  0  0  0  0  0
    1.3376    1.7129    2.4471 Cl  0  0  0  0  0  0  0  0  0  0  0  0
  1  2  1  0
  2  3  1  0
  3  4  2  0
  3  5  1  0
  5  6  1  0
  3  7  1  0
  7  8  1  0
  8  9  2  0
  9 10  1  0
 10 11  1  0
 10 12  2  0
 12 13  1  0
 12 14  1  0
 14 15  2  0
 15 16  1  0
 15  8  1  0
M  END
>  <target>  (647) 
-5.72

$$$$

     RDKit          3D

  9  9  0  0  0  0  0  0  0  0999 V2000
    2.2189   -0.0113   -0.0877 C   0  0  0  0  0  0  0  0  0  0  0  0
    0.7252    0.0790   -0.0315 C   0  0  0  0  0  0  0  0  0  0  0  0
    0.0603    1.2420   -0.0453 C   0  0  0  0  0  0  0  0  0  0  0  0
   -1.4156    1.2365    0.0135 C   0  0  0  0  0  0  0  0  0  0  0  0
   -2.0531    2.2828    0.0027 O   0  0  0  0  0  0  0  0  0  0  0  0
   -2.0069    0.0044    0.0795 N   0  0  0  0  0  0  0  0  0  0  0  0
   -1.3315   -1.1807    0.0936 C   0  0  0  0  0  0  0  0  0  0  0  0
   -2.1201   -2.6411    0.1753 S   0  0  0  0  0  0  0  0  0  0  0  0
    0.0316   -1.1061    0.0369 N   0  0  0  0  0  0  0  0  0  0  0  0
  1  2  1  0
  2  3  2  0
  3  4  1  0
  4  5  2  0
  4  6  1  0
  6  7  1  0
  7  8  2  0
  7  9  1  0
  9  2  1  0
M  END
>  <target>  (648) 
-2.436

$$$$

     RDKit          3D

 12 12  0  0  0  0  0  0  0  0999 V2000
    2.0682    2.4163    0.5564 C   0  0  0  0  0  0  0  0  0  0  0  0
    2.3937    1.0922    0.9632 O   0  0  0  0  0  0  0  0  0  0  0  0
    1.4116    0.1468    0.8119 C   0  0  0  0  0  0  0  0  0  0  0  0
    0.1225    0.3662    0.3246 C   0  0  0  0  0  0  0  0  0  0  0  0
   -0.7929   -0.6991    0.2209 C   0  0  0  0  0  0  0  0  0  0  0  0
   -2.1831   -0.4562   -0.3206 C   0  0  0  0  0  0  0  0  0  0  0  0
   -2.1971   -0.3308   -1.8180 C   0  0  0  0  0  0  0  0  0  0  0  0
   -2.6388    0.7445   -2.4838 C   0  0  0  0  0  0  0  0  0  0  0  0
   -0.3949   -1.9894    0.6036 C   0  0  0  0  0  0  0  0  0  0  0  0
    0.8905   -2.2143    1.0934 C   0  0  0  0  0  0  0  0  0  0  0  0
    1.7756   -1.1493    1.1933 C   0  0  0  0  0  0  0  0  0  0  0  0
    3.0324   -1.3968    1.6767 O   0  0  0  0  0  0  0  0  0  0  0  0
  1  2  1  0
  2  3  1  0
  3  4  2  0
  4  5  1  0
  5  6  1  0
  6  7  1  0
  7  8  2  0
  5  9  2  0
  9 10  1  0
 10 11  2  0
 11 12  1  0
 11  3  1  0
M  END
>  <target>  (649) 
-1.56

$$$$

     RDKit          3D

 15 15  0  0  0  0  0  0  0  0999 V2000
    0.1890   -1.6566    1.9533 O   0  0  0  0  0  0  0  0  0  0  0  0
   -0.4658   -1.2766    0.9867 C   0  0  0  0  0  0  0  0  0  0  0  0
   -1.7099   -1.8069    0.7703 N   0  0  0  0  0  0  0  0  0  0  0  0
   -2.3250   -1.8481   -0.4417 C   0  0  0  0  0  0  0  0  0  0  0  0
   -3.1899   -2.6807   -0.6920 O   0  0  0  0  0  0  0  0  0  0  0  0
   -1.8737   -0.9860   -1.3890 N   0  0  0  0  0  0  0  0  0  0  0  0
   -0.6057   -0.4746   -1.3687 C   0  0  0  0  0  0  0  0  0  0  0  0
   -0.0173   -0.2665   -2.4272 O   0  0  0  0  0  0  0  0  0  0  0  0
   -0.0270   -0.1765    0.0191 C   0  0  0  0  0  0  0  0  0  0  0  0
    1.5359   -0.0456   -0.0720 C   0  0  0  0  0  0  0  0  0  0  0  0
    2.2167    0.5452    1.1718 C   0  0  0  0  0  0  0  0  0  0  0  0
    2.2263   -1.3738   -0.4318 C   0  0  0  0  0  0  0  0  0  0  0  0
   -0.7228    1.1239    0.5309 C   0  0  0  0  0  0  0  0  0  0  0  0
   -0.4775    2.3591   -0.2966 C   0  0  0  0  0  0  0  0  0  0  0  0
   -1.4375    3.0213   -0.9547 C   0  0  0  0  0  0  0  0  0  0  0  0
  1  2  2  0
  2  3  1  0
  3  4  1  0
  4  5  2  0
  4  6  1  0
  6  7  1  0
  7  8  2  0
  7  9  1  0
  9 10  1  0
 10 11  1  0
 10 12  1  0
  9 13  1  0
 13 14  1  0
 14 15  2  0
  9  2  1  0
M  END
>  <target>  (650) 
-1.7080000000000002

$$$$

     RDKit          3D

 16 19  0  0  0  0  0  0  0  0999 V2000
    3.5122    0.0862   -0.0860 C   0  0  0  0  0  0  0  0  0  0  0  0
    2.8430   -1.1331   -0.1868 C   0  0  0  0  0  0  0  0  0  0  0  0
    1.4416   -1.1840   -0.1541 C   0  0  0  0  0  0  0  0  0  0  0  0
    0.7518   -2.3998   -0.2539 C   0  0  0  0  0  0  0  0  0  0  0  0
   -0.6447   -2.4341   -0.2197 C   0  0  0  0  0  0  0  0  0  0  0  0
   -1.3876   -1.2534   -0.0848 C   0  0  0  0  0  0  0  0  0  0  0  0
   -2.7897   -1.2713   -0.0488 C   0  0  0  0  0  0  0  0  0  0  0  0
   -3.5122   -0.0862    0.0860 C   0  0  0  0  0  0  0  0  0  0  0  0
   -2.8430    1.1331    0.1868 C   0  0  0  0  0  0  0  0  0  0  0  0
   -1.4416    1.1840    0.1541 C   0  0  0  0  0  0  0  0  0  0  0  0
   -0.7518    2.3998    0.2539 C   0  0  0  0  0  0  0  0  0  0  0  0
    0.6447    2.4341    0.2197 C   0  0  0  0  0  0  0  0  0  0  0  0
    1.3876    1.2534    0.0848 C   0  0  0  0  0  0  0  0  0  0  0  0
    2.7897    1.2713    0.0488 C   0  0  0  0  0  0  0  0  0  0  0  0
    0.7081    0.0174   -0.0173 C   0  0  0  0  0  0  0  0  0  0  0  0
   -0.7081   -0.0174    0.0173 C   0  0  0  0  0  0  0  0  0  0  0  0
  1  2  2  0
  2  3  1  0
  3  4  2  0
  4  5  1  0
  5  6  2  0
  6  7  1  0
  7  8  2  0
  8  9  1  0
  9 10  2  0
 10 11  1  0
 11 12  2  0
 12 13  1  0
 13 14  2  0
 13 15  1  0
 15 16  2  0
 14  1  1  0
 15  3  1  0
 16  6  1  0
 16 10  1  0
M  END
>  <target>  (651) 
-6.176

$$$$

     RDKit          3D

  8  7  0  0  0  0  0  0  0  0999 V2000
    2.7627   -1.8198    0.9090 C   0  0  0  0  0  0  0  0  0  0  0  0
    1.6223   -1.1850    0.1372 C   0  0  0  0  0  0  0  0  0  0  0  0
    1.3707    0.1033    0.6901 O   0  0  0  0  0  0  0  0  0  0  0  0
    0.3465    0.8035   -0.0190 C   0  0  0  0  0  0  0  0  0  0  0  0
    0.2557    2.1933    0.5974 C   0  0  0  0  0  0  0  0  0  0  0  0
   -0.9020    0.1295    0.1179 O   0  0  0  0  0  0  0  0  0  0  0  0
   -1.8164    0.4301   -0.9310 C   0  0  0  0  0  0  0  0  0  0  0  0
   -3.0952   -0.3460   -0.6839 C   0  0  0  0  0  0  0  0  0  0  0  0
  1  2  1  0
  2  3  1  0
  3  4  1  0
  4  5  1  0
  4  6  1  0
  6  7  1  0
  7  8  1  0
M  END
>  <target>  (652) 
-0.43

$$$$

     RDKit          3D

 16 17  0  0  0  0  0  0  0  0999 V2000
    2.7521    1.6645   -0.2487 C   0  0  0  0  0  0  0  0  0  0  0  0
    2.6127    0.1430   -0.1399 C   0  0  0  0  0  0  0  0  0  0  0  0
    3.9548   -0.5089    0.1629 C   0  0  0  0  0  0  0  0  0  0  0  0
    1.9368   -0.4545   -1.3614 C   0  0  0  0  0  0  0  0  0  0  0  0
    0.5369   -0.1996   -1.1910 O   0  0  0  0  0  0  0  0  0  0  0  0
    0.3212   -0.1077    0.2199 N   0  0  0  0  0  0  0  0  0  0  0  0
   -0.8029   -0.9079    0.6801 C   0  0  0  0  0  0  0  0  0  0  0  0
   -2.1206   -0.4291    0.1233 C   0  0  0  0  0  0  0  0  0  0  0  0
   -2.7036    0.7265    0.6783 C   0  0  0  0  0  0  0  0  0  0  0  0
   -3.9156    1.2231    0.1959 C   0  0  0  0  0  0  0  0  0  0  0  0
   -4.5631    0.5775   -0.8530 C   0  0  0  0  0  0  0  0  0  0  0  0
   -3.9959   -0.5628   -1.4208 C   0  0  0  0  0  0  0  0  0  0  0  0
   -2.7808   -1.0636   -0.9398 C   0  0  0  0  0  0  0  0  0  0  0  0
   -2.1491   -2.4788   -1.7047 Cl  0  0  0  0  0  0  0  0  0  0  0  0
    1.5512   -0.2012    0.8654 C   0  0  0  0  0  0  0  0  0  0  0  0
    1.7390   -0.4826    2.0395 O   0  0  0  0  0  0  0  0  0  0  0  0
  1  2  1  0
  2  3  1  0
  2  4  1  0
  4  5  1  0
  5  6  1  0
  6  7  1  0
  7  8  1  0
  8  9  2  0
  9 10  1  0
 10 11  2  0
 11 12  1  0
 12 13  2  0
 13 14  1  0
  6 15  1  0
 15 16  2  0
 15  2  1  0
 13  8  1  0
M  END
>  <target>  (653) 
-2.338

$$$$

     RDKit          3D

  8  7  0  0  0  0  0  0  0  0999 V2000
    3.0910   -0.1821   -1.3111 C   0  0  0  0  0  0  0  0  0  0  0  0
    1.5885   -0.2424   -1.0844 C   0  0  0  0  0  0  0  0  0  0  0  0
    1.2443   -1.0525    0.1676 C   0  0  0  0  0  0  0  0  0  0  0  0
   -0.2615   -1.1530    0.3927 C   0  0  0  0  0  0  0  0  0  0  0  0
   -0.7899    0.1508    0.6313 O   0  0  0  0  0  0  0  0  0  0  0  0
   -2.2076    0.1152    0.8392 C   0  0  0  0  0  0  0  0  0  0  0  0
   -2.6824    1.5455    1.0699 C   0  0  0  0  0  0  0  0  0  0  0  0
   -2.3754    2.3427   -0.0732 O   0  0  0  0  0  0  0  0  0  0  0  0
  1  2  1  0
  2  3  1  0
  3  4  1  0
  4  5  1  0
  5  6  1  0
  6  7  1  0
  7  8  1  0
M  END
>  <target>  (654) 
-0.42

$$$$

     RDKit          3D

 14 14  0  0  0  0  0  0  0  0999 V2000
    3.5915   -0.3104    0.0515 Cl  0  0  0  0  0  0  0  0  0  0  0  0
    1.8557   -0.1604    0.0266 C   0  0  0  0  0  0  0  0  0  0  0  0
    1.2572    1.1090    0.1752 C   0  0  0  0  0  0  0  0  0  0  0  0
    2.2510    2.5239    0.3832 Cl  0  0  0  0  0  0  0  0  0  0  0  0
   -0.1421    1.2335    0.1556 C   0  0  0  0  0  0  0  0  0  0  0  0
   -0.8974    2.7884    0.3371 Cl  0  0  0  0  0  0  0  0  0  0  0  0
   -0.9144    0.0790   -0.0131 C   0  0  0  0  0  0  0  0  0  0  0  0
   -2.3484    0.2030   -0.0337 N   0  0  0  0  0  0  0  0  0  0  0  0
   -2.8725    0.3921   -1.1371 O   0  0  0  0  0  0  0  0  0  0  0  0
   -2.9283    0.1093    1.0540 O   0  0  0  0  0  0  0  0  0  0  0  0
   -0.3472   -1.1912   -0.1626 C   0  0  0  0  0  0  0  0  0  0  0  0
   -1.3525   -2.5940   -0.3693 Cl  0  0  0  0  0  0  0  0  0  0  0  0
    1.0528   -1.3087   -0.1421 C   0  0  0  0  0  0  0  0  0  0  0  0
    1.7946   -2.8735   -0.3252 Cl  0  0  0  0  0  0  0  0  0  0  0  0
  1  2  1  0
  2  3  2  0
  3  4  1  0
  3  5  1  0
  5  6  1  0
  5  7  2  0
  7  8  1  0
  8  9  1  0
  8 10  2  0
  7 11  1  0
 11 12  1  0
 11 13  2  0
 13 14  1  0
 13  2  1  0
M  CHG  2   8   1   9  -1
M  END
>  <target>  (655) 
-5.82

$$$$

     RDKit          3D

 21 24  0  0  0  0  0  0  0  0999 V2000
    1.9691   -2.1573   -0.0064 C   0  0  0  0  0  0  0  0  0  0  0  0
    1.4743   -0.7035    0.2263 C   0  0  0  0  0  0  0  0  0  0  0  0
    2.0445   -0.2153    1.5934 C   0  0  0  0  0  0  0  0  0  0  0  0
    3.5737   -0.1127    1.6331 C   0  0  0  0  0  0  0  0  0  0  0  0
    4.1499    0.7085    0.4817 C   0  0  0  0  0  0  0  0  0  0  0  0
    3.9396    2.0960    0.7297 O   0  0  0  0  0  0  0  0  0  0  0  0
    3.5558    0.3372   -0.8806 C   0  0  0  0  0  0  0  0  0  0  0  0
    2.0134    0.2200   -0.9065 C   0  0  0  0  0  0  0  0  0  0  0  0
    1.3649    1.6160   -0.8976 C   0  0  0  0  0  0  0  0  0  0  0  0
   -0.1542    1.5469   -0.9243 C   0  0  0  0  0  0  0  0  0  0  0  0
   -0.6972    0.7442    0.2675 C   0  0  0  0  0  0  0  0  0  0  0  0
   -0.1091   -0.6911    0.2856 C   0  0  0  0  0  0  0  0  0  0  0  0
   -0.7934   -1.5502   -0.8022 C   0  0  0  0  0  0  0  0  0  0  0  0
   -2.3074   -1.6123   -0.6110 C   0  0  0  0  0  0  0  0  0  0  0  0
   -2.9812   -0.2362   -0.5944 C   0  0  0  0  0  0  0  0  0  0  0  0
   -3.2393    0.2881   -2.0085 C   0  0  0  0  0  0  0  0  0  0  0  0
   -2.2421    0.7849    0.3033 C   0  0  0  0  0  0  0  0  0  0  0  0
   -2.7894    0.4983    1.7128 C   0  0  0  0  0  0  0  0  0  0  0  0
   -4.2798    0.2807    1.5053 C   0  0  0  0  0  0  0  0  0  0  0  0
   -4.3127   -0.3632    0.1450 C   0  0  0  0  0  0  0  0  0  0  0  0
   -5.3063   -0.9207   -0.3072 O   0  0  0  0  0  0  0  0  0  0  0  0
  1  2  1  0
  2  3  1  0
  3  4  1  0
  4  5  1  0
  5  6  1  0
  5  7  1  0
  7  8  1  0
  8  9  1  0
  9 10  1  0
 10 11  1  0
 11 12  1  0
 12 13  1  0
 13 14  1  0
 14 15  1  0
 15 16  1  0
 15 17  1  0
 17 18  1  0
 18 19  1  0
 19 20  1  0
 20 21  2  0
  8  2  1  0
 12  2  1  0
 17 11  1  0
 20 15  1  0
M  END
>  <target>  (656) 
-4.402

$$$$

     RDKit          3D

 19 20  0  0  0  0  0  0  0  0999 V2000
    4.1235    2.7790    1.5156 F   0  0  0  0  0  0  0  0  0  0  0  0
    3.3885    2.2636    0.4917 C   0  0  0  0  0  0  0  0  0  0  0  0
    4.2695    2.0082   -0.5136 F   0  0  0  0  0  0  0  0  0  0  0  0
    2.6012    3.2845    0.0482 F   0  0  0  0  0  0  0  0  0  0  0  0
    2.5929    1.0434    0.8817 C   0  0  0  0  0  0  0  0  0  0  0  0
    3.0251    0.2037    1.9119 C   0  0  0  0  0  0  0  0  0  0  0  0
    2.2819   -0.9240    2.2443 C   0  0  0  0  0  0  0  0  0  0  0  0
    1.1030   -1.2235    1.5516 C   0  0  0  0  0  0  0  0  0  0  0  0
    0.6425   -0.4095    0.5101 C   0  0  0  0  0  0  0  0  0  0  0  0
    1.4128    0.7189    0.1835 C   0  0  0  0  0  0  0  0  0  0  0  0
   -0.5608   -0.6936   -0.1941 N   0  0  0  0  0  0  0  0  0  0  0  0
   -1.0783    0.1657   -1.2387 C   0  0  0  0  0  0  0  0  0  0  0  0
   -2.5333   -0.2592   -1.4040 C   0  0  0  0  0  0  0  0  0  0  0  0
   -3.4624    0.4573   -0.4168 C   0  0  0  0  0  0  0  0  0  0  0  0
   -3.6042    2.1907   -0.8039 Cl  0  0  0  0  0  0  0  0  0  0  0  0
   -2.4778   -1.7508   -1.0855 C   0  0  0  0  0  0  0  0  0  0  0  0
   -2.0306   -2.7107   -2.5184 Cl  0  0  0  0  0  0  0  0  0  0  0  0
   -1.3495   -1.8536   -0.0734 C   0  0  0  0  0  0  0  0  0  0  0  0
   -1.2057   -2.8091    0.6748 O   0  0  0  0  0  0  0  0  0  0  0  0
  1  2  1  0
  2  3  1  0
  2  4  1  0
  2  5  1  0
  5  6  2  0
  6  7  1  0
  7  8  2  0
  8  9  1  0
  9 10  2  0
  9 11  1  0
 11 12  1  0
 12 13  1  0
 13 14  1  0
 14 15  1  0
 13 16  1  0
 16 17  1  0
 16 18  1  0
 18 19  2  0
 10  5  1  0
 18 11  1  0
M  END
>  <target>  (657) 
-4.047

$$$$

     RDKit          3D

 10 11  0  0  0  0  0  0  0  0999 V2000
   -2.2981    0.7249   -0.1493 C   0  0  0  0  0  0  0  0  0  0  0  0
   -2.3732   -0.6611   -0.2276 C   0  0  0  0  0  0  0  0  0  0  0  0
   -1.2040   -1.4262   -0.1723 C   0  0  0  0  0  0  0  0  0  0  0  0
    0.0478   -0.8399   -0.0398 C   0  0  0  0  0  0  0  0  0  0  0  0
    1.1434   -1.6193    0.0087 N   0  0  0  0  0  0  0  0  0  0  0  0
    2.3451   -1.0151    0.1380 C   0  0  0  0  0  0  0  0  0  0  0  0
    2.5161    0.3535    0.2232 C   0  0  0  0  0  0  0  0  0  0  0  0
    1.3831    1.1560    0.1728 C   0  0  0  0  0  0  0  0  0  0  0  0
    0.1183    0.5678    0.0392 C   0  0  0  0  0  0  0  0  0  0  0  0
   -1.0552    1.3407   -0.0161 C   0  0  0  0  0  0  0  0  0  0  0  0
  1  2  2  0
  2  3  1  0
  3  4  2  0
  4  5  1  0
  5  6  2  0
  6  7  1  0
  7  8  2  0
  8  9  1  0
  9 10  2  0
 10  1  1  0
  9  4  1  0
M  END
>  <target>  (658) 
-1.3

$$$$

     RDKit          3D

 13 13  0  0  0  0  0  0  0  0999 V2000
   -3.6271    1.1440   -1.1981 C   0  0  0  0  0  0  0  0  0  0  0  0
   -2.2205    0.9878   -1.0057 O   0  0  0  0  0  0  0  0  0  0  0  0
   -1.8890    0.0393   -0.0968 C   0  0  0  0  0  0  0  0  0  0  0  0
   -2.6718   -0.6535    0.5349 O   0  0  0  0  0  0  0  0  0  0  0  0
   -0.4124   -0.0651    0.0486 C   0  0  0  0  0  0  0  0  0  0  0  0
    0.0904   -1.0120    0.9615 C   0  0  0  0  0  0  0  0  0  0  0  0
    1.4649   -1.1421    1.1281 C   0  0  0  0  0  0  0  0  0  0  0  0
    2.0082   -2.0440    1.9996 O   0  0  0  0  0  0  0  0  0  0  0  0
    2.3353   -0.3422    0.3978 C   0  0  0  0  0  0  0  0  0  0  0  0
    3.6892   -0.4624    0.5543 O   0  0  0  0  0  0  0  0  0  0  0  0
    1.8401    0.5918   -0.5026 C   0  0  0  0  0  0  0  0  0  0  0  0
    2.7003    1.3743   -1.2168 O   0  0  0  0  0  0  0  0  0  0  0  0
    0.4715    0.7406   -0.6867 C   0  0  0  0  0  0  0  0  0  0  0  0
  1  2  1  0
  2  3  1  0
  3  4  2  0
  3  5  1  0
  5  6  2  0
  6  7  1  0
  7  8  1  0
  7  9  2  0
  9 10  1  0
  9 11  1  0
 11 12  1  0
 11 13  2  0
 13  5  1  0
M  END
>  <target>  (659) 
-1.24

$$$$

     RDKit          3D

 22 24  0  0  0  0  0  0  0  0999 V2000
    0.2036    0.8090   -1.6330 O   0  0  0  0  0  0  0  0  0  0  0  0
   -0.0224    0.5210   -0.2329 C   0  0  0  0  0  0  0  0  0  0  0  0
   -0.4619    1.8532    0.4185 C   0  0  0  0  0  0  0  0  0  0  0  0
    0.5787    2.8581    0.4394 N   0  0  0  0  0  0  0  0  0  0  0  0
    0.8654    3.7905   -0.5060 C   0  0  0  0  0  0  0  0  0  0  0  0
    1.8691    4.5314   -0.0955 N   0  0  0  0  0  0  0  0  0  0  0  0
    2.1679    3.9985    1.1257 C   0  0  0  0  0  0  0  0  0  0  0  0
    1.4106    2.9601    1.4940 N   0  0  0  0  0  0  0  0  0  0  0  0
    1.3012   -0.0046    0.3890 C   0  0  0  0  0  0  0  0  0  0  0  0
    1.6698   -1.3193   -0.1003 N   0  0  0  0  0  0  0  0  0  0  0  0
    1.9272   -2.4425    0.6172 C   0  0  0  0  0  0  0  0  0  0  0  0
    2.2110   -3.4268   -0.2041 N   0  0  0  0  0  0  0  0  0  0  0  0
    2.1192   -2.8417   -1.4348 C   0  0  0  0  0  0  0  0  0  0  0  0
    1.7816   -1.5476   -1.4261 N   0  0  0  0  0  0  0  0  0  0  0  0
   -1.1964   -0.4627   -0.1182 C   0  0  0  0  0  0  0  0  0  0  0  0
   -1.9860   -0.8078   -1.2311 C   0  0  0  0  0  0  0  0  0  0  0  0
   -3.0509   -1.7043   -1.1028 C   0  0  0  0  0  0  0  0  0  0  0  0
   -3.3406   -2.2588    0.1374 C   0  0  0  0  0  0  0  0  0  0  0  0
   -4.3634   -3.1148    0.2553 F   0  0  0  0  0  0  0  0  0  0  0  0
   -2.5899   -1.9326    1.2550 C   0  0  0  0  0  0  0  0  0  0  0  0
   -1.5326   -1.0402    1.1178 C   0  0  0  0  0  0  0  0  0  0  0  0
   -0.8244   -0.7254    2.2109 F   0  0  0  0  0  0  0  0  0  0  0  0
  1  2  1  0
  2  3  1  0
  3  4  1  0
  4  5  1  0
  5  6  2  0
  6  7  1  0
  7  8  2  0
  2  9  1  0
  9 10  1  0
 10 11  1  0
 11 12  2  0
 12 13  1  0
 13 14  2  0
  2 15  1  0
 15 16  2  0
 16 17  1  0
 17 18  2  0
 18 19  1  0
 18 20  1  0
 20 21  2  0
 21 22  1  0
  8  4  1  0
 14 10  1  0
 21 15  1  0
M  END
>  <target>  (660) 
-1.8

$$$$

     RDKit          3D

 11 12  0  0  0  0  0  0  0  0999 V2000
    3.2279   -1.7158   -0.4465 Cl  0  0  0  0  0  0  0  0  0  0  0  0
    1.8271   -0.7373   -0.2315 C   0  0  0  0  0  0  0  0  0  0  0  0
    1.9734    0.6611   -0.1178 C   0  0  0  0  0  0  0  0  0  0  0  0
    0.8536    1.4830    0.0576 C   0  0  0  0  0  0  0  0  0  0  0  0
   -0.3774    0.8669    0.1127 C   0  0  0  0  0  0  0  0  0  0  0  0
   -1.5975    1.5008    0.2801 O   0  0  0  0  0  0  0  0  0  0  0  0
   -2.4957    0.4253    0.2635 C   0  0  0  0  0  0  0  0  0  0  0  0
   -3.7059    0.5445    0.3834 O   0  0  0  0  0  0  0  0  0  0  0  0
   -1.8373   -0.7708    0.0956 N   0  0  0  0  0  0  0  0  0  0  0  0
   -0.5028   -0.5026   -0.0003 C   0  0  0  0  0  0  0  0  0  0  0  0
    0.5704   -1.3438   -0.1733 C   0  0  0  0  0  0  0  0  0  0  0  0
  1  2  1  0
  2  3  2  0
  3  4  1  0
  4  5  2  0
  5  6  1  0
  6  7  1  0
  7  8  2  0
  7  9  1  0
  9 10  1  0
 10 11  2  0
 10  5  1  0
 11  2  1  0
M  END
>  <target>  (661) 
-2.8310000000000004

$$$$

     RDKit          3D

 19 20  0  0  0  0  0  0  0  0999 V2000
   -5.2638   -0.5003    0.0056 Cl  0  0  0  0  0  0  0  0  0  0  0  0
   -3.5517   -0.3361    0.0061 C   0  0  0  0  0  0  0  0  0  0  0  0
   -2.8034   -0.9123   -1.0173 C   0  0  0  0  0  0  0  0  0  0  0  0
   -1.4124   -0.7813   -1.0207 C   0  0  0  0  0  0  0  0  0  0  0  0
   -0.7534   -0.0718    0.0006 C   0  0  0  0  0  0  0  0  0  0  0  0
   -1.5352    0.5018    1.0249 C   0  0  0  0  0  0  0  0  0  0  0  0
   -0.8069    1.3910    2.3194 Cl  0  0  0  0  0  0  0  0  0  0  0  0
   -2.9259    0.3708    1.0283 C   0  0  0  0  0  0  0  0  0  0  0  0
    0.7223    0.0499   -0.0305 C   0  0  0  0  0  0  0  0  0  0  0  0
    1.3472    1.1370   -0.6861 C   0  0  0  0  0  0  0  0  0  0  0  0
    0.3535    2.3257   -1.4907 Cl  0  0  0  0  0  0  0  0  0  0  0  0
    2.7495    1.2668   -0.6983 C   0  0  0  0  0  0  0  0  0  0  0  0
    3.4925    2.6146   -1.5154 Cl  0  0  0  0  0  0  0  0  0  0  0  0
    3.5477    0.3058   -0.0534 C   0  0  0  0  0  0  0  0  0  0  0  0
    5.2836    0.4624   -0.0685 Cl  0  0  0  0  0  0  0  0  0  0  0  0
    2.9458   -0.7840    0.5998 C   0  0  0  0  0  0  0  0  0  0  0  0
    3.9323   -1.9810    1.3936 Cl  0  0  0  0  0  0  0  0  0  0  0  0
    1.5430   -0.9091    0.6091 C   0  0  0  0  0  0  0  0  0  0  0  0
    0.7928   -2.2641    1.4147 Cl  0  0  0  0  0  0  0  0  0  0  0  0
  1  2  1  0
  2  3  2  0
  3  4  1  0
  4  5  2  0
  5  6  1  0
  6  7  1  0
  6  8  2  0
  5  9  1  0
  9 10  2  0
 10 11  1  0
 10 12  1  0
 12 13  1  0
 12 14  2  0
 14 15  1  0
 14 16  1  0
 16 17  1  0
 16 18  2  0
 18 19  1  0
  8  2  1  0
 18  9  1  0
M  END
>  <target>  (662) 
-7.92

$$$$

     RDKit          3D

 10 10  0  0  0  0  0  0  0  0999 V2000
   -0.2143    2.6077    0.0892 O   0  0  0  0  0  0  0  0  0  0  0  0
   -0.1150    1.3871    0.1379 C   0  0  0  0  0  0  0  0  0  0  0  0
   -1.2167    0.5873    0.1294 N   0  0  0  0  0  0  0  0  0  0  0  0
   -1.2399   -0.7691   -0.0773 C   0  0  0  0  0  0  0  0  0  0  0  0
   -2.2651   -1.3874   -0.3139 O   0  0  0  0  0  0  0  0  0  0  0  0
    0.1182   -1.4420   -0.0226 C   0  0  0  0  0  0  0  0  0  0  0  0
    0.2164   -2.6545    0.0657 O   0  0  0  0  0  0  0  0  0  0  0  0
    1.3497   -0.5573   -0.0492 C   0  0  0  0  0  0  0  0  0  0  0  0
    2.4667   -1.0003   -0.2626 O   0  0  0  0  0  0  0  0  0  0  0  0
    1.1021    0.7769    0.1546 N   0  0  0  0  0  0  0  0  0  0  0  0
  1  2  2  0
  2  3  1  0
  3  4  1  0
  4  5  2  0
  4  6  1  0
  6  7  2  0
  6  8  1  0
  8  9  2  0
  8 10  1  0
 10  2  1  0
M  END
>  <target>  (663) 
-1.25

$$$$

     RDKit          3D

  5  4  0  0  0  0  0  0  0  0999 V2000
    1.8309    0.6445    1.3612 Cl  0  0  0  0  0  0  0  0  0  0  0  0
    1.2190    0.3384   -0.2815 C   0  0  0  0  0  0  0  0  0  0  0  0
    0.0133   -0.5953   -0.2695 C   0  0  0  0  0  0  0  0  0  0  0  0
   -1.2258   -0.0334    0.4196 C   0  0  0  0  0  0  0  0  0  0  0  0
   -1.8760    1.3796   -0.4449 Cl  0  0  0  0  0  0  0  0  0  0  0  0
  1  2  1  0
  2  3  1  0
  3  4  1  0
  4  5  1  0
M  END
>  <target>  (664) 
-1.62

$$$$

     RDKit          3D

  8  8  0  0  0  0  0  0  0  0999 V2000
   -1.1805    2.4630    0.0643 F   0  0  0  0  0  0  0  0  0  0  0  0
   -0.6246    1.2447    0.0326 C   0  0  0  0  0  0  0  0  0  0  0  0
   -1.4449    0.1207    0.0114 C   0  0  0  0  0  0  0  0  0  0  0  0
   -0.8712   -1.1499   -0.0215 C   0  0  0  0  0  0  0  0  0  0  0  0
    0.5192   -1.2837   -0.0329 C   0  0  0  0  0  0  0  0  0  0  0  0
    1.3273   -0.1447   -0.0113 C   0  0  0  0  0  0  0  0  0  0  0  0
    3.2085   -0.3311   -0.0268 Br  0  0  0  0  0  0  0  0  0  0  0  0
    0.7600    1.1263    0.0216 C   0  0  0  0  0  0  0  0  0  0  0  0
  1  2  1  0
  2  3  2  0
  3  4  1  0
  4  5  2  0
  5  6  1  0
  6  7  1  0
  6  8  2  0
  8  2  1  0
M  END
>  <target>  (665) 
-2.67

$$$$

     RDKit          3D

  8  8  0  0  0  0  0  0  0  0999 V2000
   -3.1088   -0.3051    0.0687 Cl  0  0  0  0  0  0  0  0  0  0  0  0
   -1.3971   -0.1371    0.0309 C   0  0  0  0  0  0  0  0  0  0  0  0
   -0.8269    1.1355   -0.0025 C   0  0  0  0  0  0  0  0  0  0  0  0
    0.5629    1.2726   -0.0332 C   0  0  0  0  0  0  0  0  0  0  0  0
    1.3697    0.1344   -0.0303 C   0  0  0  0  0  0  0  0  0  0  0  0
    3.2504    0.3190   -0.0718 Br  0  0  0  0  0  0  0  0  0  0  0  0
    0.8004   -1.1388    0.0031 C   0  0  0  0  0  0  0  0  0  0  0  0
   -0.5896   -1.2745    0.0338 C   0  0  0  0  0  0  0  0  0  0  0  0
  1  2  1  0
  2  3  2  0
  3  4  1  0
  4  5  2  0
  5  6  1  0
  5  7  1  0
  7  8  2  0
  8  2  1  0
M  END
>  <target>  (666) 
-3.63

$$$$

     RDKit          3D

  6  5  0  0  0  0  0  0  0  0999 V2000
   -1.2484   -0.8168    1.3767 C   0  0  0  0  0  0  0  0  0  0  0  0
   -0.6236   -0.6289   -0.0100 C   0  0  0  0  0  0  0  0  0  0  0  0
   -1.5016    0.3070   -0.8452 C   0  0  0  0  0  0  0  0  0  0  0  0
    0.8615   -0.1865    0.0860 C   0  0  0  0  0  0  0  0  0  0  0  0
    1.5584   -0.2453   -1.2776 C   0  0  0  0  0  0  0  0  0  0  0  0
    1.0619    1.1998    0.7046 C   0  0  0  0  0  0  0  0  0  0  0  0
  1  2  1  0
  2  3  1  0
  2  4  1  0
  4  5  1  0
  4  6  1  0
M  END
>  <target>  (667) 
-3.65

$$$$

     RDKit          3D

  4  3  0  0  0  0  0  0  0  0999 V2000
   -1.5775    0.1808    0.2794 C   0  0  0  0  0  0  0  0  0  0  0  0
   -0.3977   -0.4814   -0.4150 C   0  0  0  0  0  0  0  0  0  0  0  0
    0.8834   -0.2369    0.3274 C   0  0  0  0  0  0  0  0  0  0  0  0
    1.9348    0.4152   -0.1845 C   0  0  0  0  0  0  0  0  0  0  0  0
  1  2  1  0
  2  3  1  0
  3  4  2  0
M  END
>  <target>  (668) 
-1.94

$$$$

     RDKit          3D

 18 19  0  0  0  0  0  0  0  0999 V2000
   -3.6220    1.6108    2.3249 Cl  0  0  0  0  0  0  0  0  0  0  0  0
   -2.8332    0.7866    1.0378 C   0  0  0  0  0  0  0  0  0  0  0  0
   -3.5892    0.2043    0.0243 C   0  0  0  0  0  0  0  0  0  0  0  0
   -2.9475   -0.4661   -1.0174 C   0  0  0  0  0  0  0  0  0  0  0  0
   -1.5514   -0.5509   -1.0425 C   0  0  0  0  0  0  0  0  0  0  0  0
   -0.8212   -1.4046   -2.3581 Cl  0  0  0  0  0  0  0  0  0  0  0  0
   -0.7739    0.0368   -0.0244 C   0  0  0  0  0  0  0  0  0  0  0  0
   -1.4399    0.7058    1.0195 C   0  0  0  0  0  0  0  0  0  0  0  0
    0.6990   -0.0286   -0.0151 C   0  0  0  0  0  0  0  0  0  0  0  0
    1.3195   -1.0953    0.6547 C   0  0  0  0  0  0  0  0  0  0  0  0
    2.7111   -1.2163    0.6864 C   0  0  0  0  0  0  0  0  0  0  0  0
    3.3596   -2.5737    1.5416 Cl  0  0  0  0  0  0  0  0  0  0  0  0
    3.5200   -0.2669    0.0478 C   0  0  0  0  0  0  0  0  0  0  0  0
    5.2506   -0.4306    0.0985 Cl  0  0  0  0  0  0  0  0  0  0  0  0
    2.9189    0.8125   -0.6260 C   0  0  0  0  0  0  0  0  0  0  0  0
    3.9095    2.0053   -1.4202 Cl  0  0  0  0  0  0  0  0  0  0  0  0
    1.5134    0.9306   -0.6557 C   0  0  0  0  0  0  0  0  0  0  0  0
    0.7542    2.2661   -1.4780 Cl  0  0  0  0  0  0  0  0  0  0  0  0
  1  2  1  0
  2  3  2  0
  3  4  1  0
  4  5  2  0
  5  6  1  0
  5  7  1  0
  7  8  2  0
  7  9  1  0
  9 10  2  0
 10 11  1  0
 11 12  1  0
 11 13  2  0
 13 14  1  0
 13 15  1  0
 15 16  1  0
 15 17  2  0
 17 18  1  0
  8  2  1  0
 17  9  1  0
M  END
>  <target>  (669) 
-7.68

$$$$

     RDKit          3D

  8  8  0  0  0  0  0  0  0  0999 V2000
    2.2601   -0.3244   -0.3622 N   0  0  0  0  0  0  0  0  0  0  0  0
    0.9070   -0.1999   -0.2045 C   0  0  0  0  0  0  0  0  0  0  0  0
    0.3386    1.0955    0.2386 C   0  0  0  0  0  0  0  0  0  0  0  0
   -0.9864    1.1267    0.3716 C   0  0  0  0  0  0  0  0  0  0  0  0
   -1.7205    0.0110    0.1073 N   0  0  0  0  0  0  0  0  0  0  0  0
   -1.1744   -1.1814   -0.3059 C   0  0  0  0  0  0  0  0  0  0  0  0
   -1.9204   -2.1328   -0.5206 O   0  0  0  0  0  0  0  0  0  0  0  0
    0.1880   -1.2520   -0.4526 N   0  0  0  0  0  0  0  0  0  0  0  0
  1  2  1  0
  2  3  1  0
  3  4  2  0
  4  5  1  0
  5  6  1  0
  6  7  2  0
  6  8  1  0
  8  2  2  0
M  END
>  <target>  (670) 
-1.155

$$$$

     RDKit          3D

  8  7  0  0  0  0  0  0  0  0999 V2000
   -1.2638   -1.2996    0.2270 F   0  0  0  0  0  0  0  0  0  0  0  0
   -0.7867   -0.0600   -0.0838 C   0  0  0  0  0  0  0  0  0  0  0  0
   -1.2082    0.1851   -1.3578 F   0  0  0  0  0  0  0  0  0  0  0  0
   -1.5797    1.1233    0.9970 Cl  0  0  0  0  0  0  0  0  0  0  0  0
    0.7582   -0.0458   -0.0163 C   0  0  0  0  0  0  0  0  0  0  0  0
    1.2557   -0.9843   -0.8781 F   0  0  0  0  0  0  0  0  0  0  0  0
    1.3750   -0.4560    1.6197 Cl  0  0  0  0  0  0  0  0  0  0  0  0
    1.4496    1.5372   -0.5078 Cl  0  0  0  0  0  0  0  0  0  0  0  0
  1  2  1  0
  2  3  1  0
  2  4  1  0
  2  5  1  0
  5  6  1  0
  5  7  1  0
  5  8  1  0
M  END
>  <target>  (671) 
-3.04

$$$$

     RDKit          3D

  4  3  0  0  0  0  0  0  0  0999 V2000
   -0.9964    0.1384    0.0382 C   0  0  0  0  0  0  0  0  0  0  0  0
    0.3723   -0.4805   -0.1883 C   0  0  0  0  0  0  0  0  0  0  0  0
    1.4446    0.4413    0.2051 C   0  0  0  0  0  0  0  0  0  0  0  0
    2.2939    1.1684    0.5155 N   0  0  0  0  0  0  0  0  0  0  0  0
  1  2  1  0
  2  3  1  0
  3  4  3  0
M  END
>  <target>  (672) 
0.28

$$$$

     RDKit          3D

 18 19  0  0  0  0  0  0  0  0999 V2000
   -1.4117   -3.4832    0.3553 Cl  0  0  0  0  0  0  0  0  0  0  0  0
    0.0591   -2.5161   -0.0087 C   0  0  0  0  0  0  0  0  0  0  0  0
    1.4646   -3.4261    0.6422 Cl  0  0  0  0  0  0  0  0  0  0  0  0
   -0.0289   -1.0801    0.5843 C   0  0  0  0  0  0  0  0  0  0  0  0
    1.2239   -0.2095    0.3967 C   0  0  0  0  0  0  0  0  0  0  0  0
    1.5607    0.7155    1.4033 C   0  0  0  0  0  0  0  0  0  0  0  0
    2.6773    1.5448    1.2732 C   0  0  0  0  0  0  0  0  0  0  0  0
    3.4680    1.4640    0.1319 C   0  0  0  0  0  0  0  0  0  0  0  0
    4.8427    2.4846   -0.0327 Cl  0  0  0  0  0  0  0  0  0  0  0  0
    3.1490    0.5633   -0.8804 C   0  0  0  0  0  0  0  0  0  0  0  0
    2.0308   -0.2668   -0.7520 C   0  0  0  0  0  0  0  0  0  0  0  0
   -1.2706   -0.3218    0.0910 C   0  0  0  0  0  0  0  0  0  0  0  0
   -1.4374   -0.0756   -1.2885 C   0  0  0  0  0  0  0  0  0  0  0  0
   -2.5553    0.6070   -1.7733 C   0  0  0  0  0  0  0  0  0  0  0  0
   -3.5304    1.0610   -0.8930 C   0  0  0  0  0  0  0  0  0  0  0  0
   -3.3855    0.8352    0.4737 C   0  0  0  0  0  0  0  0  0  0  0  0
   -2.2669    0.1523    0.9661 C   0  0  0  0  0  0  0  0  0  0  0  0
   -2.1868   -0.0691    2.6788 Cl  0  0  0  0  0  0  0  0  0  0  0  0
  1  2  1  0
  2  3  1  0
  2  4  1  0
  4  5  1  0
  5  6  2  0
  6  7  1  0
  7  8  2  0
  8  9  1  0
  8 10  1  0
 10 11  2  0
  4 12  1  0
 12 13  2  0
 13 14  1  0
 14 15  2  0
 15 16  1  0
 16 17  2  0
 17 18  1  0
 11  5  1  0
 17 12  1  0
M  END
>  <target>  (673) 
-6.51

$$$$

     RDKit          3D

 11 11  0  0  0  0  0  0  0  0999 V2000
    2.4803   -1.1412   -0.5690 C   0  0  0  0  0  0  0  0  0  0  0  0
    1.7062    0.0519   -0.5472 O   0  0  0  0  0  0  0  0  0  0  0  0
    0.3846   -0.0542   -0.2155 C   0  0  0  0  0  0  0  0  0  0  0  0
   -0.2968   -1.2617   -0.0333 C   0  0  0  0  0  0  0  0  0  0  0  0
   -1.6649   -1.2706    0.2743 C   0  0  0  0  0  0  0  0  0  0  0  0
   -2.3751   -0.0760    0.3998 C   0  0  0  0  0  0  0  0  0  0  0  0
   -1.7186    1.1379    0.2223 C   0  0  0  0  0  0  0  0  0  0  0  0
   -0.3493    1.1312   -0.0769 C   0  0  0  0  0  0  0  0  0  0  0  0
    0.3072    2.4118   -0.2419 N   0  0  0  0  0  0  0  0  0  0  0  0
   -0.0782    3.1209   -1.1829 O   0  0  0  0  0  0  0  0  0  0  0  0
    1.1593    2.7303    0.5992 O   0  0  0  0  0  0  0  0  0  0  0  0
  1  2  1  0
  2  3  1  0
  3  4  2  0
  4  5  1  0
  5  6  2  0
  6  7  1  0
  7  8  2  0
  8  9  1  0
  9 10  1  0
  9 11  2  0
  8  3  1  0
M  CHG  2   9   1  10  -1
M  END
>  <target>  (674) 
-1.96

$$$$

     RDKit          3D

 21 24  0  0  0  0  0  0  0  0999 V2000
    3.1373   -1.0714   -1.2329 C   0  0  0  0  0  0  0  0  0  0  0  0
    2.9249   -0.5074    0.1836 C   0  0  0  0  0  0  0  0  0  0  0  0
    2.1877   -1.4986    1.0778 C   0  0  0  0  0  0  0  0  0  0  0  0
    0.7295   -1.6685    0.6164 C   0  0  0  0  0  0  0  0  0  0  0  0
   -0.0453   -0.3303    0.4479 C   0  0  0  0  0  0  0  0  0  0  0  0
    0.7686    0.7505   -0.3267 C   0  0  0  0  0  0  0  0  0  0  0  0
    0.0554    2.1083   -0.2469 C   0  0  0  0  0  0  0  0  0  0  0  0
   -1.4244    2.0187   -0.4481 C   0  0  0  0  0  0  0  0  0  0  0  0
   -2.1339    0.8759   -0.4236 C   0  0  0  0  0  0  0  0  0  0  0  0
   -3.6278    0.9024   -0.6678 C   0  0  0  0  0  0  0  0  0  0  0  0
   -4.4034    0.1478    0.4132 C   0  0  0  0  0  0  0  0  0  0  0  0
   -5.7826    0.0671    0.0603 O   0  0  0  0  0  0  0  0  0  0  0  0
   -3.8667   -1.2693    0.5822 C   0  0  0  0  0  0  0  0  0  0  0  0
   -2.3703   -1.2628    0.8927 C   0  0  0  0  0  0  0  0  0  0  0  0
   -1.5003   -0.4970   -0.1483 C   0  0  0  0  0  0  0  0  0  0  0  0
   -1.4767   -1.2879   -1.4784 C   0  0  0  0  0  0  0  0  0  0  0  0
    2.1773    0.8365    0.2662 C   0  0  0  0  0  0  0  0  0  0  0  0
    3.1692    1.8528   -0.2892 C   0  0  0  0  0  0  0  0  0  0  0  0
    4.4861    1.4457    0.3889 C   0  0  0  0  0  0  0  0  0  0  0  0
    4.2821   -0.0335    0.6714 C   0  0  0  0  0  0  0  0  0  0  0  0
    5.1196   -0.7501    1.2026 O   0  0  0  0  0  0  0  0  0  0  0  0
  1  2  1  0
  2  3  1  0
  3  4  1  0
  4  5  1  0
  5  6  1  0
  6  7  1  0
  7  8  1  0
  8  9  2  0
  9 10  1  0
 10 11  1  0
 11 12  1  0
 11 13  1  0
 13 14  1  0
 14 15  1  0
 15 16  1  0
  6 17  1  0
 17 18  1  0
 18 19  1  0
 19 20  1  0
 20 21  2  0
 15  5  1  0
 15  9  1  0
 17  2  1  0
 20  2  1  0
M  END
>  <target>  (675) 
-4.12

$$$$

     RDKit          3D

 18 20  0  0  0  0  0  0  0  0999 V2000
   -3.0980    1.2764   -0.2973 C   0  0  0  0  0  0  0  0  0  0  0  0
   -2.0583    0.3560    0.2733 C   0  0  0  0  0  0  0  0  0  0  0  0
   -2.5152   -0.8821    1.0208 C   0  0  0  0  0  0  0  0  0  0  0  0
   -1.8172   -1.0299   -0.3175 C   0  0  0  0  0  0  0  0  0  0  0  0
   -2.6138   -1.5245   -1.4907 C   0  0  0  0  0  0  0  0  0  0  0  0
   -0.3209   -1.1748   -0.3462 C   0  0  0  0  0  0  0  0  0  0  0  0
    0.1790   -2.2051   -0.7648 O   0  0  0  0  0  0  0  0  0  0  0  0
    0.2679   -0.0159    0.1322 N   0  0  0  0  0  0  0  0  0  0  0  0
   -0.6849    0.8977    0.5513 C   0  0  0  0  0  0  0  0  0  0  0  0
   -0.5598    1.9769    1.1052 O   0  0  0  0  0  0  0  0  0  0  0  0
    1.6857    0.1948    0.2301 C   0  0  0  0  0  0  0  0  0  0  0  0
    2.6053   -0.8503    0.0320 C   0  0  0  0  0  0  0  0  0  0  0  0
    3.9862   -0.6363    0.1267 C   0  0  0  0  0  0  0  0  0  0  0  0
    5.0711   -1.9518   -0.1152 Cl  0  0  0  0  0  0  0  0  0  0  0  0
    4.4942    0.6210    0.4166 C   0  0  0  0  0  0  0  0  0  0  0  0
    3.6050    1.6668    0.6117 C   0  0  0  0  0  0  0  0  0  0  0  0
    4.2122    3.2398    0.9622 Cl  0  0  0  0  0  0  0  0  0  0  0  0
    2.2227    1.4619    0.5209 C   0  0  0  0  0  0  0  0  0  0  0  0
  1  2  1  0
  2  3  1  0
  3  4  1  0
  4  5  1  0
  4  6  1  0
  6  7  2  0
  6  8  1  0
  8  9  1  0
  9 10  2  0
  8 11  1  0
 11 12  2  0
 12 13  1  0
 13 14  1  0
 13 15  2  0
 15 16  1  0
 16 17  1  0
 16 18  2  0
  9  2  1  0
  4  2  1  0
 18 11  1  0
M  END
>  <target>  (676) 
-4.8

$$$$

     RDKit          3D

 22 27  0  0  0  0  0  0  0  0999 V2000
    3.2982   -2.1700    0.3038 C   0  0  0  0  0  0  0  0  0  0  0  0
    3.7450   -0.8577    0.3383 C   0  0  0  0  0  0  0  0  0  0  0  0
    2.8338    0.1979    0.2525 C   0  0  0  0  0  0  0  0  0  0  0  0
    3.2916    1.5196    0.2879 C   0  0  0  0  0  0  0  0  0  0  0  0
    2.3970    2.5836    0.2035 C   0  0  0  0  0  0  0  0  0  0  0  0
    1.0248    2.3478    0.0819 C   0  0  0  0  0  0  0  0  0  0  0  0
    0.1261    3.4165   -0.0029 C   0  0  0  0  0  0  0  0  0  0  0  0
   -1.2420    3.1828   -0.1242 C   0  0  0  0  0  0  0  0  0  0  0  0
   -1.7390    1.8758   -0.1632 C   0  0  0  0  0  0  0  0  0  0  0  0
   -3.1116    1.6427   -0.2849 C   0  0  0  0  0  0  0  0  0  0  0  0
   -3.6063    0.3415   -0.3237 C   0  0  0  0  0  0  0  0  0  0  0  0
   -2.7398   -0.7541   -0.2417 C   0  0  0  0  0  0  0  0  0  0  0  0
   -3.2528   -2.0530   -0.2822 C   0  0  0  0  0  0  0  0  0  0  0  0
   -2.3997   -3.1432   -0.2014 C   0  0  0  0  0  0  0  0  0  0  0  0
   -1.0245   -2.9420   -0.0793 C   0  0  0  0  0  0  0  0  0  0  0  0
   -0.4473   -1.6482   -0.0331 C   0  0  0  0  0  0  0  0  0  0  0  0
    0.9640   -1.4072    0.0920 C   0  0  0  0  0  0  0  0  0  0  0  0
    1.9339   -2.4367    0.1830 C   0  0  0  0  0  0  0  0  0  0  0  0
    1.4433   -0.0712    0.1293 C   0  0  0  0  0  0  0  0  0  0  0  0
    0.5415    1.0161    0.0442 C   0  0  0  0  0  0  0  0  0  0  0  0
   -0.8451    0.7793   -0.0788 C   0  0  0  0  0  0  0  0  0  0  0  0
   -1.3389   -0.5464   -0.1174 C   0  0  0  0  0  0  0  0  0  0  0  0
  1  2  2  0
  2  3  1  0
  3  4  2  0
  4  5  1  0
  5  6  2  0
  6  7  1  0
  7  8  2  0
  8  9  1  0
  9 10  2  0
 10 11  1  0
 11 12  2  0
 12 13  1  0
 13 14  2  0
 14 15  1  0
 15 16  2  0
 16 17  1  0
 17 18  2  0
 17 19  1  0
 19 20  2  0
 20 21  1  0
 21 22  2  0
 18  1  1  0
 19  3  1  0
 20  6  1  0
 21  9  1  0
 22 12  1  0
 22 16  1  0
M  END
>  <target>  (677) 
-9.017999999999999

$$$$

     RDKit          3D

 17 17  0  0  0  0  0  0  0  0999 V2000
   -2.3351    0.4752    1.7978 C   0  0  0  0  0  0  0  0  0  0  0  0
   -2.4478   -0.5013    0.6333 C   0  0  0  0  0  0  0  0  0  0  0  0
   -1.6341   -0.0635   -0.6028 C   0  0  0  0  0  0  0  0  0  0  0  0
   -1.9367   -0.9829   -1.7937 C   0  0  0  0  0  0  0  0  0  0  0  0
   -0.1299   -0.0087   -0.3376 C   0  0  0  0  0  0  0  0  0  0  0  0
    0.5589   -1.1766    0.0465 C   0  0  0  0  0  0  0  0  0  0  0  0
    1.9380   -1.1460    0.2966 C   0  0  0  0  0  0  0  0  0  0  0  0
    2.6594    0.0448    0.1693 C   0  0  0  0  0  0  0  0  0  0  0  0
    1.9835    1.2139   -0.2136 C   0  0  0  0  0  0  0  0  0  0  0  0
    2.7584    2.4545   -0.3416 N   0  0  0  0  0  0  0  0  0  0  0  0
    2.1462    3.4801   -0.6784 O   0  0  0  0  0  0  0  0  0  0  0  0
    3.9728    2.4081   -0.1076 O   0  0  0  0  0  0  0  0  0  0  0  0
    0.5972    1.1928   -0.4671 C   0  0  0  0  0  0  0  0  0  0  0  0
   -0.1196    2.2996   -0.8423 O   0  0  0  0  0  0  0  0  0  0  0  0
    2.6312   -2.3791    0.6970 N   0  0  0  0  0  0  0  0  0  0  0  0
    1.9561   -3.4120    0.8009 O   0  0  0  0  0  0  0  0  0  0  0  0
    3.8496   -2.3086    0.9060 O   0  0  0  0  0  0  0  0  0  0  0  0
  1  2  1  0
  2  3  1  0
  3  4  1  0
  3  5  1  0
  5  6  2  0
  6  7  1  0
  7  8  2  0
  8  9  1  0
  9 10  1  0
 10 11  1  0
 10 12  2  0
  9 13  2  0
 13 14  1  0
  7 15  1  0
 15 16  1  0
 15 17  2  0
 13  5  1  0
M  CHG  4  10   1  11  -1  15   1  16  -1
M  END
>  <target>  (678) 
-3.38

$$$$

     RDKit          3D

 14 15  0  0  0  0  0  0  0  0999 V2000
   -0.4233   -1.6523   -1.2200 C   0  0  0  0  0  0  0  0  0  0  0  0
    0.7095   -0.8031   -0.9004 C   0  0  0  0  0  0  0  0  0  0  0  0
    1.7762   -1.0876   -1.7136 O   0  0  0  0  0  0  0  0  0  0  0  0
    2.9930   -0.3762   -1.5489 C   0  0  0  0  0  0  0  0  0  0  0  0
    0.6117    0.1002    0.1052 C   0  0  0  0  0  0  0  0  0  0  0  0
    1.7042    0.8115    0.5730 O   0  0  0  0  0  0  0  0  0  0  0  0
    1.5528    2.2244    0.4455 C   0  0  0  0  0  0  0  0  0  0  0  0
   -0.6563    0.1986    0.9309 C   0  0  0  0  0  0  0  0  0  0  0  0
   -1.6474    1.2161    0.3897 C   0  0  0  0  0  0  0  0  0  0  0  0
   -1.3912    2.3047   -0.1009 O   0  0  0  0  0  0  0  0  0  0  0  0
   -2.9283    0.7795    0.5951 O   0  0  0  0  0  0  0  0  0  0  0  0
   -2.8959   -0.5060    1.2122 C   0  0  0  0  0  0  0  0  0  0  0  0
   -1.5151   -1.0691    0.9352 C   0  0  0  0  0  0  0  0  0  0  0  0
   -1.4513   -1.8183   -0.3754 C   0  0  0  0  0  0  0  0  0  0  0  0
  1  2  1  0
  2  3  1  0
  3  4  1  0
  2  5  2  0
  5  6  1  0
  6  7  1  0
  5  8  1  0
  8  9  1  0
  9 10  2  0
  9 11  1  0
 11 12  1  0
 12 13  1  0
 13 14  1  0
 14  1  2  0
 13  8  1  0
M  END
>  <target>  (679) 
-1.899

$$$$

     RDKit          3D

  6  5  0  0  0  0  0  0  0  0999 V2000
    2.3087   -0.7904    0.3981 O   0  0  0  0  0  0  0  0  0  0  0  0
    0.9748   -0.4343    0.7672 C   0  0  0  0  0  0  0  0  0  0  0  0
    0.1204   -0.3004   -0.4960 C   0  0  0  0  0  0  0  0  0  0  0  0
    0.6868    0.7506   -1.2996 O   0  0  0  0  0  0  0  0  0  0  0  0
   -1.3367    0.0390   -0.1834 C   0  0  0  0  0  0  0  0  0  0  0  0
   -1.3963    1.3215    0.4436 O   0  0  0  0  0  0  0  0  0  0  0  0
  1  2  1  0
  2  3  1  0
  3  4  1  0
  3  5  1  0
  5  6  1  0
M  END
>  <target>  (680) 
1.12

$$$$

     RDKit          3D

  9  9  0  0  0  0  0  0  0  0999 V2000
   -2.5312   -0.6126    0.3450 C   0  0  0  0  0  0  0  0  0  0  0  0
   -1.6409    0.4890    0.2087 O   0  0  0  0  0  0  0  0  0  0  0  0
   -0.3460    0.1907   -0.1304 C   0  0  0  0  0  0  0  0  0  0  0  0
    0.1763   -1.0834   -0.3527 C   0  0  0  0  0  0  0  0  0  0  0  0
    1.5256   -1.2365   -0.6944 C   0  0  0  0  0  0  0  0  0  0  0  0
    2.3565   -0.1209   -0.8151 C   0  0  0  0  0  0  0  0  0  0  0  0
    1.8428    1.1547   -0.5948 C   0  0  0  0  0  0  0  0  0  0  0  0
    0.5028    1.2975   -0.2562 C   0  0  0  0  0  0  0  0  0  0  0  0
    0.0209    2.5613   -0.0445 O   0  0  0  0  0  0  0  0  0  0  0  0
  1  2  1  0
  2  3  1  0
  3  4  2  0
  4  5  1  0
  5  6  2  0
  6  7  1  0
  7  8  2  0
  8  9  1  0
  8  3  1  0
M  END
>  <target>  (681) 
-1.96

$$$$

     RDKit          3D

 18 18  0  0  0  0  0  0  0  0999 V2000
   -2.2595   -3.0535    0.4675 C   0  0  0  0  0  0  0  0  0  0  0  0
   -2.0046   -1.9305   -0.5168 C   0  0  0  0  0  0  0  0  0  0  0  0
   -0.8768   -1.1945   -0.0778 O   0  0  0  0  0  0  0  0  0  0  0  0
   -0.5708    0.2359   -0.7727 P   0  0  0  0  0  0  0  0  0  0  0  0
   -0.4104    0.3048   -2.7087 S   0  0  0  0  0  0  0  0  0  0  0  0
   -1.8012    1.1072   -0.1659 O   0  0  0  0  0  0  0  0  0  0  0  0
   -1.8152    2.5078   -0.3874 C   0  0  0  0  0  0  0  0  0  0  0  0
   -2.7980    3.1378    0.5782 C   0  0  0  0  0  0  0  0  0  0  0  0
    0.6539    0.8070    0.1079 O   0  0  0  0  0  0  0  0  0  0  0  0
    1.8890    0.2171    0.1134 C   0  0  0  0  0  0  0  0  0  0  0  0
    2.0295   -0.9577   -0.5301 N   0  0  0  0  0  0  0  0  0  0  0  0
    3.2594   -1.5254   -0.5038 C   0  0  0  0  0  0  0  0  0  0  0  0
    3.3195   -3.0211   -1.3500 Cl  0  0  0  0  0  0  0  0  0  0  0  0
    4.3599   -0.9687    0.1411 C   0  0  0  0  0  0  0  0  0  0  0  0
    5.9161   -1.7051    0.1665 Cl  0  0  0  0  0  0  0  0  0  0  0  0
    4.1840    0.2469    0.8002 C   0  0  0  0  0  0  0  0  0  0  0  0
    2.9288    0.8518    0.7893 C   0  0  0  0  0  0  0  0  0  0  0  0
    2.7108    2.3541    1.6018 Cl  0  0  0  0  0  0  0  0  0  0  0  0
  1  2  1  0
  2  3  1  0
  3  4  1  0
  4  5  2  0
  4  6  1  0
  6  7  1  0
  7  8  1  0
  4  9  1  0
  9 10  1  0
 10 11  2  0
 11 12  1  0
 12 13  1  0
 12 14  2  0
 14 15  1  0
 14 16  1  0
 16 17  2  0
 17 18  1  0
 17 10  1  0
M  END
>  <target>  (682) 
-5.67

$$$$

     RDKit          3D

 15 17  0  0  0  0  0  0  0  0999 V2000
   -0.2278   -2.3790    1.0173 C   0  0  0  0  0  0  0  0  0  0  0  0
   -0.0951   -0.9849    0.4394 C   0  0  0  0  0  0  0  0  0  0  0  0
    1.2067   -0.4351    0.2040 C   0  0  0  0  0  0  0  0  0  0  0  0
    2.4230   -1.1259    0.4363 C   0  0  0  0  0  0  0  0  0  0  0  0
    3.6702   -0.5384    0.2042 C   0  0  0  0  0  0  0  0  0  0  0  0
    3.7430    0.7607   -0.2730 C   0  0  0  0  0  0  0  0  0  0  0  0
    2.5685    1.4643   -0.5251 C   0  0  0  0  0  0  0  0  0  0  0  0
    1.3086    0.8819   -0.2996 C   0  0  0  0  0  0  0  0  0  0  0  0
    0.1496    1.6118   -0.5839 C   0  0  0  0  0  0  0  0  0  0  0  0
   -1.1275    1.0683   -0.4091 C   0  0  0  0  0  0  0  0  0  0  0  0
   -2.2591    1.8338   -0.7421 C   0  0  0  0  0  0  0  0  0  0  0  0
   -3.5446    1.3185   -0.6005 C   0  0  0  0  0  0  0  0  0  0  0  0
   -3.7128    0.0267   -0.1276 C   0  0  0  0  0  0  0  0  0  0  0  0
   -2.5950   -0.7418    0.2107 C   0  0  0  0  0  0  0  0  0  0  0  0
   -1.2722   -0.2453    0.0926 C   0  0  0  0  0  0  0  0  0  0  0  0
  1  2  1  0
  2  3  2  0
  3  4  1  0
  4  5  2  0
  5  6  1  0
  6  7  2  0
  7  8  1  0
  8  9  2  0
  9 10  1  0
 10 11  2  0
 11 12  1  0
 12 13  2  0
 13 14  1  0
 14 15  2  0
 15  2  1  0
  8  3  1  0
 15 10  1  0
M  END
>  <target>  (683) 
-5.89

$$$$

     RDKit          3D

 14 15  0  0  0  0  0  0  0  0999 V2000
   -3.5884    0.9937    0.1663 C   0  0  0  0  0  0  0  0  0  0  0  0
   -2.3461    0.3741   -0.3797 C   0  0  0  0  0  0  0  0  0  0  0  0
   -2.2106   -0.1195   -1.6175 C   0  0  0  0  0  0  0  0  0  0  0  0
   -0.8231   -0.6221   -1.7088 C   0  0  0  0  0  0  0  0  0  0  0  0
   -0.3730   -1.1036   -2.7357 O   0  0  0  0  0  0  0  0  0  0  0  0
   -0.2225   -0.3598   -0.4710 N   0  0  0  0  0  0  0  0  0  0  0  0
    1.1720   -0.2127   -0.2494 C   0  0  0  0  0  0  0  0  0  0  0  0
    1.6656    0.6325    0.7565 C   0  0  0  0  0  0  0  0  0  0  0  0
    3.0403    0.7722    0.9737 C   0  0  0  0  0  0  0  0  0  0  0  0
    3.9454    0.0691    0.1848 C   0  0  0  0  0  0  0  0  0  0  0  0
    3.4758   -0.7678   -0.8231 C   0  0  0  0  0  0  0  0  0  0  0  0
    2.1004   -0.9046   -1.0393 C   0  0  0  0  0  0  0  0  0  0  0  0
   -1.1880    0.2403    0.3958 N   0  0  0  0  0  0  0  0  0  0  0  0
   -1.3088   -0.4322    1.7009 C   0  0  0  0  0  0  0  0  0  0  0  0
  1  2  1  0
  2  3  2  0
  3  4  1  0
  4  5  2  0
  4  6  1  0
  6  7  1  0
  7  8  2  0
  8  9  1  0
  9 10  2  0
 10 11  1  0
 11 12  2  0
  6 13  1  0
 13 14  1  0
 13  2  1  0
 12  7  1  0
M  END
>  <target>  (684) 
0.715

$$$$

     RDKit          3D

  6  5  0  0  0  0  0  0  0  0999 V2000
   -2.7685    0.4474   -0.0600 C   0  0  0  0  0  0  0  0  0  0  0  0
   -1.2784    0.4215   -0.3625 C   0  0  0  0  0  0  0  0  0  0  0  0
   -0.5708   -0.6951    0.4087 C   0  0  0  0  0  0  0  0  0  0  0  0
    0.9205   -0.7598    0.0917 C   0  0  0  0  0  0  0  0  0  0  0  0
    1.5494    0.4440    0.5263 O   0  0  0  0  0  0  0  0  0  0  0  0
    2.9435    0.4368    0.2506 C   0  0  0  0  0  0  0  0  0  0  0  0
  1  2  1  0
  2  3  1  0
  3  4  1  0
  4  5  1  0
  5  6  1  0
M  END
>  <target>  (685) 
-0.99

$$$$

     RDKit          3D

 11 12  0  0  0  0  0  0  0  0999 V2000
    2.9758    0.3819    0.3765 C   0  0  0  0  0  0  0  0  0  0  0  0
    1.5444    0.0143    0.1435 C   0  0  0  0  0  0  0  0  0  0  0  0
    1.2054   -1.2294   -0.3606 C   0  0  0  0  0  0  0  0  0  0  0  0
   -0.0747   -1.5886   -0.5808 N   0  0  0  0  0  0  0  0  0  0  0  0
   -1.0066   -0.6481   -0.2746 C   0  0  0  0  0  0  0  0  0  0  0  0
   -2.3565   -0.8598   -0.4420 C   0  0  0  0  0  0  0  0  0  0  0  0
   -3.3254    0.0358   -0.1556 N   0  0  0  0  0  0  0  0  0  0  0  0
   -2.8893    1.2033    0.3250 C   0  0  0  0  0  0  0  0  0  0  0  0
   -1.6117    1.5352    0.5344 N   0  0  0  0  0  0  0  0  0  0  0  0
   -0.6880    0.6206    0.2378 C   0  0  0  0  0  0  0  0  0  0  0  0
    0.5961    0.9372    0.4417 N   0  0  0  0  0  0  0  0  0  0  0  0
  1  2  1  0
  2  3  2  0
  3  4  1  0
  4  5  2  0
  5  6  1  0
  6  7  2  0
  7  8  1  0
  8  9  2  0
  9 10  1  0
 10 11  2  0
 10  5  1  0
 11  2  1  0
M  END
>  <target>  (686) 
-0.8540000000000001

$$$$

     RDKit          3D

 13 13  0  0  0  0  0  0  0  0999 V2000
    3.9782    1.1385   -1.5974 C   0  0  0  0  0  0  0  0  0  0  0  0
    2.7105    0.8796   -0.7983 C   0  0  0  0  0  0  0  0  0  0  0  0
    2.3143   -0.5079   -0.9615 N   0  0  0  0  0  0  0  0  0  0  0  0
    1.2024   -0.8905   -0.2210 C   0  0  0  0  0  0  0  0  0  0  0  0
    1.2114   -2.1347    0.2161 N   0  0  0  0  0  0  0  0  0  0  0  0
    0.1237   -2.4580    0.8982 C   0  0  0  0  0  0  0  0  0  0  0  0
    0.0629   -4.0612    1.4902 Cl  0  0  0  0  0  0  0  0  0  0  0  0
   -0.9228   -1.6987    1.1783 N   0  0  0  0  0  0  0  0  0  0  0  0
   -0.8223   -0.4723    0.7014 C   0  0  0  0  0  0  0  0  0  0  0  0
   -1.8308    0.4567    0.9262 N   0  0  0  0  0  0  0  0  0  0  0  0
   -3.1728   -0.0942    0.9908 C   0  0  0  0  0  0  0  0  0  0  0  0
   -4.1738    1.0375    1.1630 C   0  0  0  0  0  0  0  0  0  0  0  0
    0.2136   -0.0293   -0.0008 N   0  0  0  0  0  0  0  0  0  0  0  0
  1  2  1  0
  2  3  1  0
  3  4  1  0
  4  5  2  0
  5  6  1  0
  6  7  1  0
  6  8  2  0
  8  9  1  0
  9 10  1  0
 10 11  1  0
 11 12  1  0
  9 13  2  0
 13  4  1  0
M  END
>  <target>  (687) 
-4.55

$$$$

     RDKit          3D

  6  5  0  0  0  0  0  0  0  0999 V2000
   -1.1790    1.4926    0.1085 C   0  0  0  0  0  0  0  0  0  0  0  0
   -0.3951    0.2716    0.1984 N   0  0  0  0  0  0  0  0  0  0  0  0
   -0.9478   -0.8937   -0.4744 C   0  0  0  0  0  0  0  0  0  0  0  0
    0.9189    0.3646    0.6416 C   0  0  0  0  0  0  0  0  0  0  0  0
    1.4143    1.4152    1.0504 O   0  0  0  0  0  0  0  0  0  0  0  0
    1.7459   -0.8963    0.6146 C   0  0  0  0  0  0  0  0  0  0  0  0
  1  2  1  0
  2  3  1  0
  2  4  1  0
  4  5  2  0
  4  6  1  0
M  END
>  <target>  (688) 
1.11

$$$$

     RDKit          3D

 14 14  0  0  0  0  0  0  0  0999 V2000
   -1.0148    3.9757    0.6289 C   0  0  0  0  0  0  0  0  0  0  0  0
    0.4853    3.2428    1.3249 S   0  0  0  0  0  0  0  0  0  0  0  0
    0.3371    1.5773    0.7104 C   0  0  0  0  0  0  0  0  0  0  0  0
    1.4329    0.8356    0.7824 N   0  0  0  0  0  0  0  0  0  0  0  0
    1.3215   -0.4008    0.3213 C   0  0  0  0  0  0  0  0  0  0  0  0
    0.1814   -0.8776   -0.1728 N   0  0  0  0  0  0  0  0  0  0  0  0
   -0.8786   -0.0743   -0.1983 C   0  0  0  0  0  0  0  0  0  0  0  0
   -0.8340    1.1771    0.2355 N   0  0  0  0  0  0  0  0  0  0  0  0
   -2.0780   -0.5575   -0.7341 N   0  0  0  0  0  0  0  0  0  0  0  0
   -3.2660    0.1679   -0.3104 C   0  0  0  0  0  0  0  0  0  0  0  0
   -2.1791   -2.0093   -0.7665 C   0  0  0  0  0  0  0  0  0  0  0  0
    2.4337   -1.2476    0.3824 N   0  0  0  0  0  0  0  0  0  0  0  0
    3.7090   -0.5622    0.5312 C   0  0  0  0  0  0  0  0  0  0  0  0
    2.3952   -2.3608   -0.5533 C   0  0  0  0  0  0  0  0  0  0  0  0
  1  2  1  0
  2  3  1  0
  3  4  2  0
  4  5  1  0
  5  6  2  0
  6  7  1  0
  7  8  2  0
  7  9  1  0
  9 10  1  0
  9 11  1  0
  5 12  1  0
 12 13  1  0
 12 14  1  0
  8  3  1  0
M  END
>  <target>  (689) 
-2.676

$$$$

     RDKit          3D

  2  1  0  0  0  0  0  0  0  0999 V2000
    0.6567    0.0724    0.0981 C   0  0  0  0  0  0  0  0  0  0  0  0
   -0.6567   -0.0724   -0.0981 C   0  0  0  0  0  0  0  0  0  0  0  0
  1  2  2  0
M  END
>  <target>  (690) 
-0.4

$$$$

     RDKit          3D

  7  6  0  0  0  0  0  0  0  0999 V2000
   -1.5330   -1.2793   -0.6573 C   0  0  0  0  0  0  0  0  0  0  0  0
   -0.6258   -0.1472   -0.1375 C   0  0  0  0  0  0  0  0  0  0  0  0
   -0.8880    0.0374    1.3661 C   0  0  0  0  0  0  0  0  0  0  0  0
   -0.9902    1.1498   -0.8782 C   0  0  0  0  0  0  0  0  0  0  0  0
    0.8474   -0.5465   -0.4025 C   0  0  0  0  0  0  0  0  0  0  0  0
    1.9025    0.4597    0.0481 C   0  0  0  0  0  0  0  0  0  0  0  0
    3.1885   -0.0620   -0.2690 O   0  0  0  0  0  0  0  0  0  0  0  0
  1  2  1  0
  2  3  1  0
  2  4  1  0
  2  5  1  0
  5  6  1  0
  6  7  1  0
M  END
>  <target>  (691) 
-0.5

$$$$

     RDKit          3D

 14 14  0  0  0  0  0  0  0  0999 V2000
    0.8148    1.0661    1.9952 O   0  0  0  0  0  0  0  0  0  0  0  0
    1.0268    0.2819    1.0736 C   0  0  0  0  0  0  0  0  0  0  0  0
    2.1664   -0.4742    1.0710 N   0  0  0  0  0  0  0  0  0  0  0  0
    2.7746   -0.9051   -0.0655 C   0  0  0  0  0  0  0  0  0  0  0  0
    3.9756   -1.1512   -0.0956 O   0  0  0  0  0  0  0  0  0  0  0  0
    2.0090   -0.9676   -1.1873 N   0  0  0  0  0  0  0  0  0  0  0  0
    0.8296   -0.2943   -1.3529 C   0  0  0  0  0  0  0  0  0  0  0  0
    0.4188   -0.0477   -2.4844 O   0  0  0  0  0  0  0  0  0  0  0  0
    0.0632    0.0359   -0.0790 C   0  0  0  0  0  0  0  0  0  0  0  0
   -0.8749    1.2488   -0.3023 C   0  0  0  0  0  0  0  0  0  0  0  0
   -0.1622    2.5391   -0.7058 C   0  0  0  0  0  0  0  0  0  0  0  0
   -0.7584   -1.2483    0.2448 C   0  0  0  0  0  0  0  0  0  0  0  0
   -1.7007   -1.1403    1.4161 C   0  0  0  0  0  0  0  0  0  0  0  0
   -3.0269   -1.3007    1.3243 C   0  0  0  0  0  0  0  0  0  0  0  0
  1  2  2  0
  2  3  1  0
  3  4  1  0
  4  5  2  0
  4  6  1  0
  6  7  1  0
  7  8  2  0
  7  9  1  0
  9 10  1  0
 10 11  1  0
  9 12  1  0
 12 13  1  0
 13 14  2  0
  9  2  1  0
M  END
>  <target>  (692) 
-1.614

$$$$

     RDKit          3D

 10 10  0  0  0  0  0  0  0  0999 V2000
   -2.4790   -0.5009    0.2986 O   0  0  0  0  0  0  0  0  0  0  0  0
   -1.1378   -0.2755    0.1440 C   0  0  0  0  0  0  0  0  0  0  0  0
   -0.3025   -1.3823    0.2381 C   0  0  0  0  0  0  0  0  0  0  0  0
    1.0727   -1.2176    0.0897 C   0  0  0  0  0  0  0  0  0  0  0  0
    1.6077    0.0536   -0.1522 C   0  0  0  0  0  0  0  0  0  0  0  0
    3.3264    0.1632   -0.3230 Cl  0  0  0  0  0  0  0  0  0  0  0  0
    0.7665    1.1748   -0.2480 C   0  0  0  0  0  0  0  0  0  0  0  0
    1.4312    2.7507   -0.5481 Cl  0  0  0  0  0  0  0  0  0  0  0  0
   -0.6181    1.0031   -0.0977 C   0  0  0  0  0  0  0  0  0  0  0  0
   -1.7333    2.3277   -0.2000 Cl  0  0  0  0  0  0  0  0  0  0  0  0
  1  2  1  0
  2  3  2  0
  3  4  1  0
  4  5  2  0
  5  6  1  0
  5  7  1  0
  7  8  1  0
  7  9  2  0
  9 10  1  0
  9  2  1  0
M  END
>  <target>  (693) 
-2.67

$$$$

     RDKit          3D

  8  8  0  0  0  0  0  0  0  0999 V2000
    2.6944    0.1030   -0.0180 C   0  0  0  0  0  0  0  0  0  0  0  0
    1.6624   -0.8744   -0.0527 O   0  0  0  0  0  0  0  0  0  0  0  0
    0.3747   -0.4139   -0.0215 C   0  0  0  0  0  0  0  0  0  0  0  0
   -0.6033   -1.4116   -0.0576 C   0  0  0  0  0  0  0  0  0  0  0  0
   -1.9593   -1.0811   -0.0315 C   0  0  0  0  0  0  0  0  0  0  0  0
   -2.3461    0.2551    0.0310 C   0  0  0  0  0  0  0  0  0  0  0  0
   -1.3769    1.2562    0.0673 C   0  0  0  0  0  0  0  0  0  0  0  0
   -0.0184    0.9239    0.0412 C   0  0  0  0  0  0  0  0  0  0  0  0
  1  2  1  0
  2  3  1  0
  3  4  2  0
  4  5  1  0
  5  6  2  0
  6  7  1  0
  7  8  2  0
  8  3  1  0
M  END
>  <target>  (694) 
-1.85

$$$$

     RDKit          3D

 22 23  0  0  0  0  0  0  0  0999 V2000
   -0.4636   -2.6905   -0.8694 C   0  0  0  0  0  0  0  0  0  0  0  0
   -0.6873   -3.8261   -0.0861 C   0  0  0  0  0  0  0  0  0  0  0  0
   -1.0574   -3.6911    1.2498 C   0  0  0  0  0  0  0  0  0  0  0  0
   -1.2003   -2.4203    1.7980 C   0  0  0  0  0  0  0  0  0  0  0  0
   -1.6446   -2.2489    3.4518 Cl  0  0  0  0  0  0  0  0  0  0  0  0
   -0.9798   -1.2823    1.0203 C   0  0  0  0  0  0  0  0  0  0  0  0
   -0.6146   -1.3963   -0.3360 C   0  0  0  0  0  0  0  0  0  0  0  0
   -0.3334   -0.1484   -1.1912 C   0  0  0  0  0  0  0  0  0  0  0  0
   -1.3555    0.9810   -0.9716 C   0  0  0  0  0  0  0  0  0  0  0  0
   -2.7039    0.7667   -1.3323 C   0  0  0  0  0  0  0  0  0  0  0  0
   -3.6737    1.7540   -1.1418 C   0  0  0  0  0  0  0  0  0  0  0  0
   -3.3117    2.9755   -0.5859 C   0  0  0  0  0  0  0  0  0  0  0  0
   -4.5002    4.1957   -0.3478 Cl  0  0  0  0  0  0  0  0  0  0  0  0
   -1.9900    3.2153   -0.2209 C   0  0  0  0  0  0  0  0  0  0  0  0
   -1.0179    2.2262   -0.4116 C   0  0  0  0  0  0  0  0  0  0  0  0
   -0.5010   -0.5137   -2.5837 O   0  0  0  0  0  0  0  0  0  0  0  0
    1.1490    0.2980   -1.0353 C   0  0  0  0  0  0  0  0  0  0  0  0
    1.8670    0.5686   -1.9966 O   0  0  0  0  0  0  0  0  0  0  0  0
    1.5367    0.3871    0.2689 O   0  0  0  0  0  0  0  0  0  0  0  0
    2.9057    0.7601    0.5105 C   0  0  0  0  0  0  0  0  0  0  0  0
    3.7923   -0.4761    0.4172 C   0  0  0  0  0  0  0  0  0  0  0  0
    2.9635    1.3628    1.9085 C   0  0  0  0  0  0  0  0  0  0  0  0
  1  2  2  0
  2  3  1  0
  3  4  2  0
  4  5  1  0
  4  6  1  0
  6  7  2  0
  7  8  1  0
  8  9  1  0
  9 10  2  0
 10 11  1  0
 11 12  2  0
 12 13  1  0
 12 14  1  0
 14 15  2  0
  8 16  1  0
  8 17  1  0
 17 18  2  0
 17 19  1  0
 19 20  1  0
 20 21  1  0
 20 22  1  0
  7  1  1  0
 15  9  1  0
M  END
>  <target>  (695) 
-4.53

$$$$

     RDKit          3D

 26 29  0  0  0  0  0  0  0  0999 V2000
   -2.5396    0.8002    1.7169 C   0  0  0  0  0  0  0  0  0  0  0  0
   -2.5061    0.2511    0.2722 C   0  0  0  0  0  0  0  0  0  0  0  0
   -3.3278    1.2096   -0.6422 C   0  0  0  0  0  0  0  0  0  0  0  0
   -4.8363    1.1070   -0.4672 C   0  0  0  0  0  0  0  0  0  0  0  0
   -5.2920   -0.3118   -0.6594 C   0  0  0  0  0  0  0  0  0  0  0  0
   -6.3969   -0.5957   -1.1149 O   0  0  0  0  0  0  0  0  0  0  0  0
   -4.3997   -1.3927   -0.1878 C   0  0  0  0  0  0  0  0  0  0  0  0
   -3.1626   -1.1419    0.2773 C   0  0  0  0  0  0  0  0  0  0  0  0
   -2.3612   -2.2754    0.8670 C   0  0  0  0  0  0  0  0  0  0  0  0
   -0.9719   -2.3568    0.2559 C   0  0  0  0  0  0  0  0  0  0  0  0
   -0.2247   -1.0281    0.4109 C   0  0  0  0  0  0  0  0  0  0  0  0
    1.1777   -1.1081   -0.2007 C   0  0  0  0  0  0  0  0  0  0  0  0
    2.1252   -2.2116    0.2436 C   0  0  0  0  0  0  0  0  0  0  0  0
    3.4782   -1.7412   -0.3040 C   0  0  0  0  0  0  0  0  0  0  0  0
    3.3741   -0.2064   -0.5101 C   0  0  0  0  0  0  0  0  0  0  0  0
    4.5280    0.5357    0.1579 C   0  0  0  0  0  0  0  0  0  0  0  0
    5.0630    0.1143    1.1861 O   0  0  0  0  0  0  0  0  0  0  0  0
    4.9427    1.8698   -0.4521 C   0  0  0  0  0  0  0  0  0  0  0  0
    6.1879    2.3131    0.0617 O   0  0  0  0  0  0  0  0  0  0  0  0
    1.9842    0.1752    0.0419 C   0  0  0  0  0  0  0  0  0  0  0  0
    1.2717    1.3036   -0.7071 C   0  0  0  0  0  0  0  0  0  0  0  0
   -0.1964    1.4645   -0.2524 C   0  0  0  0  0  0  0  0  0  0  0  0
   -0.7812    2.4192   -1.1334 O   0  0  0  0  0  0  0  0  0  0  0  0
   -1.0175    0.1347   -0.2762 C   0  0  0  0  0  0  0  0  0  0  0  0
    2.1099    0.5490    1.5288 C   0  0  0  0  0  0  0  0  0  0  0  0
    2.0388    1.7058    1.9358 O   0  0  0  0  0  0  0  0  0  0  0  0
  1  2  1  0
  2  3  1  0
  3  4  1  0
  4  5  1  0
  5  6  2  0
  5  7  1  0
  7  8  2  0
  8  9  1  0
  9 10  1  0
 10 11  1  0
 11 12  1  0
 12 13  1  0
 13 14  1  0
 14 15  1  0
 15 16  1  0
 16 17  2  0
 16 18  1  0
 18 19  1  0
 15 20  1  0
 20 21  1  0
 21 22  1  0
 22 23  1  0
 22 24  1  0
 20 25  1  0
 25 26  2  0
  8  2  1  0
 20 12  1  0
 24  2  1  0
 24 11  1  0
M  END
>  <target>  (696) 
-3.85

$$$$

     RDKit          3D

 21 22  0  0  0  0  0  0  0  0999 V2000
    7.4446    0.8835    0.4880 C   0  0  0  0  0  0  0  0  0  0  0  0
    6.3340    0.8882   -0.4001 O   0  0  0  0  0  0  0  0  0  0  0  0
    5.2280    0.1836   -0.0116 C   0  0  0  0  0  0  0  0  0  0  0  0
    5.0867   -0.5327    1.1783 C   0  0  0  0  0  0  0  0  0  0  0  0
    3.8945   -1.2123    1.4511 C   0  0  0  0  0  0  0  0  0  0  0  0
    2.8359   -1.1644    0.5442 C   0  0  0  0  0  0  0  0  0  0  0  0
    1.7080   -1.8857    0.8624 O   0  0  0  0  0  0  0  0  0  0  0  0
    0.4880   -1.2836    0.6576 C   0  0  0  0  0  0  0  0  0  0  0  0
   -0.5051   -2.0502    0.0517 C   0  0  0  0  0  0  0  0  0  0  0  0
   -1.7813   -1.5137   -0.1527 C   0  0  0  0  0  0  0  0  0  0  0  0
   -2.0791   -0.2157    0.2683 C   0  0  0  0  0  0  0  0  0  0  0  0
   -3.3344    0.3990    0.0825 N   0  0  0  0  0  0  0  0  0  0  0  0
   -4.5182   -0.2049   -0.2803 C   0  0  0  0  0  0  0  0  0  0  0  0
   -4.6954   -1.4189   -0.3367 O   0  0  0  0  0  0  0  0  0  0  0  0
   -5.5519    0.6986   -0.5549 N   0  0  0  0  0  0  0  0  0  0  0  0
   -5.3312    2.0302   -1.1047 C   0  0  0  0  0  0  0  0  0  0  0  0
   -6.8614    0.1275   -0.8244 C   0  0  0  0  0  0  0  0  0  0  0  0
   -1.0765    0.5432    0.8879 C   0  0  0  0  0  0  0  0  0  0  0  0
    0.1998    0.0095    1.0935 C   0  0  0  0  0  0  0  0  0  0  0  0
    2.9783   -0.4702   -0.6571 C   0  0  0  0  0  0  0  0  0  0  0  0
    4.1700    0.2076   -0.9257 C   0  0  0  0  0  0  0  0  0  0  0  0
  1  2  1  0
  2  3  1  0
  3  4  2  0
  4  5  1  0
  5  6  2  0
  6  7  1  0
  7  8  1  0
  8  9  2  0
  9 10  1  0
 10 11  2  0
 11 12  1  0
 12 13  1  0
 13 14  2  0
 13 15  1  0
 15 16  1  0
 15 17  1  0
 11 18  1  0
 18 19  2  0
  6 20  1  0
 20 21  2  0
 19  8  1  0
 21  3  1  0
M  END
>  <target>  (697) 
-4.16

$$$$

     RDKit          3D

  9  9  0  0  0  0  0  0  0  0999 V2000
   -3.1121   -0.0491    0.4936 C   0  0  0  0  0  0  0  0  0  0  0  0
   -2.2215    0.8882   -0.3075 C   0  0  0  0  0  0  0  0  0  0  0  0
   -0.7740    0.4733   -0.2484 C   0  0  0  0  0  0  0  0  0  0  0  0
    0.0621    0.9520    0.7673 C   0  0  0  0  0  0  0  0  0  0  0  0
    1.3998    0.5545    0.8315 C   0  0  0  0  0  0  0  0  0  0  0  0
    1.9262   -0.3238   -0.1220 C   0  0  0  0  0  0  0  0  0  0  0  0
    3.3530   -0.7768   -0.0329 C   0  0  0  0  0  0  0  0  0  0  0  0
    1.0859   -0.8194   -1.1249 C   0  0  0  0  0  0  0  0  0  0  0  0
   -0.2519   -0.4221   -1.1895 C   0  0  0  0  0  0  0  0  0  0  0  0
  1  2  1  0
  2  3  1  0
  3  4  2  0
  4  5  1  0
  5  6  2  0
  6  7  1  0
  6  8  1  0
  8  9  2  0
  9  3  1  0
M  END
>  <target>  (698) 
-3.11

$$$$

     RDKit          3D

  7  6  0  0  0  0  0  0  0  0999 V2000
    1.9217   -1.1837   -0.0549 C   0  0  0  0  0  0  0  0  0  0  0  0
    1.3646    0.1895    0.3076 C   0  0  0  0  0  0  0  0  0  0  0  0
    2.4678    1.2442    0.2689 C   0  0  0  0  0  0  0  0  0  0  0  0
    0.0517    0.6796   -0.8740 S   0  0  0  0  0  0  0  0  0  0  0  0
   -1.3704   -0.2654   -0.2069 C   0  0  0  0  0  0  0  0  0  0  0  0
   -1.9767    0.4596    0.9907 C   0  0  0  0  0  0  0  0  0  0  0  0
   -2.4058   -0.4283   -1.3170 C   0  0  0  0  0  0  0  0  0  0  0  0
  1  2  1  0
  2  3  1  0
  2  4  1  0
  4  5  1  0
  5  6  1  0
  5  7  1  0
M  END
>  <target>  (699) 
-2.24

$$$$

     RDKit          3D

 12 12  0  0  0  0  0  0  0  0999 V2000
   -3.3284   -1.0444    0.5965 O   0  0  0  0  0  0  0  0  0  0  0  0
   -2.2927   -1.3651   -0.0021 N   0  0  0  0  0  0  0  0  0  0  0  0
   -2.1666   -2.3804   -0.6995 O   0  0  0  0  0  0  0  0  0  0  0  0
   -1.1288   -0.4769    0.1238 C   0  0  0  0  0  0  0  0  0  0  0  0
   -1.2273    0.6852    0.9045 C   0  0  0  0  0  0  0  0  0  0  0  0
   -0.1246    1.5334    1.0281 C   0  0  0  0  0  0  0  0  0  0  0  0
    1.0719    1.2259    0.3769 C   0  0  0  0  0  0  0  0  0  0  0  0
    1.1625    0.0619   -0.4021 C   0  0  0  0  0  0  0  0  0  0  0  0
    0.0650   -0.7995   -0.5361 C   0  0  0  0  0  0  0  0  0  0  0  0
    2.4244   -0.2558   -1.0847 N   0  0  0  0  0  0  0  0  0  0  0  0
    2.4650   -1.2912   -1.7624 O   0  0  0  0  0  0  0  0  0  0  0  0
    3.3702    0.5309   -0.9408 O   0  0  0  0  0  0  0  0  0  0  0  0
  1  2  1  0
  2  3  2  0
  2  4  1  0
  4  5  2  0
  5  6  1  0
  6  7  2  0
  7  8  1  0
  8  9  2  0
  8 10  1  0
 10 11  1  0
 10 12  2  0
  9  4  1  0
M  CHG  4   1  -1   2   1  10   1  11  -1
M  END
>  <target>  (700) 
-2.29

$$$$

     RDKit          3D

 19 18  0  0  0  0  0  0  0  0999 V2000
    2.6299   -3.4675   -0.5652 C   0  0  0  0  0  0  0  0  0  0  0  0
    3.1657   -2.5780    0.5384 C   0  0  0  0  0  0  0  0  0  0  0  0
    2.4377   -1.3599    0.5246 O   0  0  0  0  0  0  0  0  0  0  0  0
    3.0241   -0.0698    1.3256 P   0  0  0  0  0  0  0  0  0  0  0  0
    3.2592   -0.4184    3.2296 S   0  0  0  0  0  0  0  0  0  0  0  0
    4.4258    0.1200    0.5239 O   0  0  0  0  0  0  0  0  0  0  0  0
    5.2969    1.1736    0.9030 C   0  0  0  0  0  0  0  0  0  0  0  0
    6.2372    1.4582   -0.2502 C   0  0  0  0  0  0  0  0  0  0  0  0
    1.7729    1.5155    0.7420 S   0  0  0  0  0  0  0  0  0  0  0  0
    0.1474    0.9006    1.2216 C   0  0  0  0  0  0  0  0  0  0  0  0
   -1.1349    2.0817    0.7607 S   0  0  0  0  0  0  0  0  0  0  0  0
   -2.8912    0.9958    1.1624 P   0  0  0  0  0  0  0  0  0  0  0  0
   -3.2151    0.4520    3.0051 S   0  0  0  0  0  0  0  0  0  0  0  0
   -2.8626   -0.2643    0.1322 O   0  0  0  0  0  0  0  0  0  0  0  0
   -3.9682   -1.1547    0.0919 C   0  0  0  0  0  0  0  0  0  0  0  0
   -3.9907   -1.8279   -1.2651 C   0  0  0  0  0  0  0  0  0  0  0  0
   -4.1471    1.8333    0.5598 O   0  0  0  0  0  0  0  0  0  0  0  0
   -4.0855    2.3457   -0.7607 C   0  0  0  0  0  0  0  0  0  0  0  0
   -5.4993    2.4987   -1.2833 C   0  0  0  0  0  0  0  0  0  0  0  0
  1  2  1  0
  2  3  1  0
  3  4  1  0
  4  5  2  0
  4  6  1  0
  6  7  1  0
  7  8  1  0
  4  9  1  0
  9 10  1  0
 10 11  1  0
 11 12  1  0
 12 13  2  0
 12 14  1  0
 14 15  1  0
 15 16  1  0
 12 17  1  0
 17 18  1  0
 18 19  1  0
M  END
>  <target>  (701) 
-5.54

$$$$

     RDKit          3D

 14 14  0  0  0  0  0  0  0  0999 V2000
    0.4551    2.7425    0.0474 C   0  0  0  0  0  0  0  0  0  0  0  0
   -0.5271    1.5848   -0.1434 C   0  0  0  0  0  0  0  0  0  0  0  0
    0.0869    0.1681    0.0157 C   0  0  0  0  0  0  0  0  0  0  0  0
   -0.9856   -0.9735   -0.1950 C   0  0  0  0  0  0  0  0  0  0  0  0
   -2.1305   -0.9409    0.8307 C   0  0  0  0  0  0  0  0  0  0  0  0
   -1.6045   -0.9861   -1.6024 C   0  0  0  0  0  0  0  0  0  0  0  0
    0.6724   -0.0096    1.4176 C   0  0  0  0  0  0  0  0  0  0  0  0
    0.3190    0.6371    2.4004 O   0  0  0  0  0  0  0  0  0  0  0  0
    1.6057   -1.0003    1.5515 N   0  0  0  0  0  0  0  0  0  0  0  0
    2.4639   -1.3519    0.5578 C   0  0  0  0  0  0  0  0  0  0  0  0
    3.5586   -1.8473    0.8037 O   0  0  0  0  0  0  0  0  0  0  0  0
    2.0954   -1.0424   -0.7133 N   0  0  0  0  0  0  0  0  0  0  0  0
    1.1977   -0.0547   -1.0121 C   0  0  0  0  0  0  0  0  0  0  0  0
    1.2867    0.5540   -2.0754 O   0  0  0  0  0  0  0  0  0  0  0  0
  1  2  1  0
  2  3  1  0
  3  4  1  0
  4  5  1  0
  4  6  1  0
  3  7  1  0
  7  8  2  0
  7  9  1  0
  9 10  1  0
 10 11  2  0
 10 12  1  0
 12 13  1  0
 13 14  2  0
 13  3  1  0
M  END
>  <target>  (702) 
-2.21

$$$$

     RDKit          3D

 29 32  0  0  0  0  0  0  0  0999 V2000
    5.8968    2.0885   -1.4639 C   0  0  0  0  0  0  0  0  0  0  0  0
    5.1555    0.9794   -0.7843 C   0  0  0  0  0  0  0  0  0  0  0  0
    4.5370    0.0949   -1.3646 O   0  0  0  0  0  0  0  0  0  0  0  0
    5.2632    1.0972    0.5681 O   0  0  0  0  0  0  0  0  0  0  0  0
    4.5713    0.0880    1.3071 C   0  0  0  0  0  0  0  0  0  0  0  0
    3.0648    0.0847    1.0392 C   0  0  0  0  0  0  0  0  0  0  0  0
    2.4114    1.1227    1.1805 O   0  0  0  0  0  0  0  0  0  0  0  0
    2.4227   -1.2676    0.6148 C   0  0  0  0  0  0  0  0  0  0  0  0
    3.3621   -2.0263   -0.1357 O   0  0  0  0  0  0  0  0  0  0  0  0
    2.0506   -2.0453    1.9058 C   0  0  0  0  0  0  0  0  0  0  0  0
    0.5220   -1.9268    2.0779 C   0  0  0  0  0  0  0  0  0  0  0  0
    0.0933   -0.9121    1.0225 C   0  0  0  0  0  0  0  0  0  0  0  0
   -1.3794   -0.8702    0.5872 C   0  0  0  0  0  0  0  0  0  0  0  0
   -2.3140   -0.6750    1.7976 C   0  0  0  0  0  0  0  0  0  0  0  0
   -3.7655   -0.4163    1.3911 C   0  0  0  0  0  0  0  0  0  0  0  0
   -3.7889    0.7290    0.4103 C   0  0  0  0  0  0  0  0  0  0  0  0
   -4.3212    1.9089    0.7747 C   0  0  0  0  0  0  0  0  0  0  0  0
   -4.0797    3.1371   -0.0169 C   0  0  0  0  0  0  0  0  0  0  0  0
   -4.5955    4.1938    0.3373 O   0  0  0  0  0  0  0  0  0  0  0  0
   -3.1069    3.0584   -1.1629 C   0  0  0  0  0  0  0  0  0  0  0  0
   -3.2257    1.7097   -1.8512 C   0  0  0  0  0  0  0  0  0  0  0  0
   -3.0240    0.4922   -0.9022 C   0  0  0  0  0  0  0  0  0  0  0  0
   -3.6096   -0.7359   -1.6434 C   0  0  0  0  0  0  0  0  0  0  0  0
   -1.5391    0.2748   -0.4732 C   0  0  0  0  0  0  0  0  0  0  0  0
   -0.5340    0.0407   -1.6152 C   0  0  0  0  0  0  0  0  0  0  0  0
   -0.8503   -0.0151   -2.8011 O   0  0  0  0  0  0  0  0  0  0  0  0
    0.9283   -0.0758   -1.2036 C   0  0  0  0  0  0  0  0  0  0  0  0
    1.0662   -1.1811   -0.1483 C   0  0  0  0  0  0  0  0  0  0  0  0
    0.7850   -2.5388   -0.8702 C   0  0  0  0  0  0  0  0  0  0  0  0
  1  2  1  0
  2  3  2  0
  2  4  1  0
  4  5  1  0
  5  6  1  0
  6  7  2  0
  6  8  1  0
  8  9  1  0
  8 10  1  0
 10 11  1  0
 11 12  1  0
 12 13  1  0
 13 14  1  0
 14 15  1  0
 15 16  1  0
 16 17  2  0
 17 18  1  0
 18 19  2  0
 18 20  1  0
 20 21  1  0
 21 22  1  0
 22 23  1  0
 22 24  1  0
 24 25  1  0
 25 26  2  0
 25 27  1  0
 27 28  1  0
 28 29  1  0
 22 16  1  0
 24 13  1  0
 28  8  1  0
 28 12  1  0
M  END
>  <target>  (703) 
-4.21

$$$$

     RDKit          3D

 12 12  0  0  0  0  0  0  0  0999 V2000
   -0.2605    2.4558   -0.3132 C   0  0  0  0  0  0  0  0  0  0  0  0
    0.6341    1.3653    0.1593 C   0  0  0  0  0  0  0  0  0  0  0  0
    1.7054    1.5464    0.9097 N   0  0  0  0  0  0  0  0  0  0  0  0
    2.2401    0.3048    1.1173 C   0  0  0  0  0  0  0  0  0  0  0  0
    1.4818   -0.6483    0.4880 C   0  0  0  0  0  0  0  0  0  0  0  0
    1.6993   -2.0533    0.4739 N   0  0  0  0  0  0  0  0  0  0  0  0
    2.7945   -2.4474    0.8896 O   0  0  0  0  0  0  0  0  0  0  0  0
    0.7836   -2.7756    0.0640 O   0  0  0  0  0  0  0  0  0  0  0  0
    0.4579    0.0220   -0.1379 N   0  0  0  0  0  0  0  0  0  0  0  0
   -0.5734   -0.5163   -1.0147 C   0  0  0  0  0  0  0  0  0  0  0  0
   -1.7881   -1.0436   -0.2547 C   0  0  0  0  0  0  0  0  0  0  0  0
   -2.6178    0.0409    0.1518 O   0  0  0  0  0  0  0  0  0  0  0  0
  1  2  1  0
  2  3  2  0
  3  4  1  0
  4  5  2  0
  5  6  1  0
  6  7  1  0
  6  8  2  0
  5  9  1  0
  9 10  1  0
 10 11  1  0
 11 12  1  0
  9  2  1  0
M  CHG  2   6   1   7  -1
M  END
>  <target>  (704) 
-1.22

$$$$

     RDKit          3D

  8  8  0  0  0  0  0  0  0  0999 V2000
   -2.3217    0.3739   -0.2283 N   0  0  0  0  0  0  0  0  0  0  0  0
   -0.9547    0.1540   -0.0314 C   0  0  0  0  0  0  0  0  0  0  0  0
   -0.0596    1.2279   -0.0493 C   0  0  0  0  0  0  0  0  0  0  0  0
    1.3193    1.0097    0.0259 C   0  0  0  0  0  0  0  0  0  0  0  0
    1.8101   -0.2919    0.0767 C   0  0  0  0  0  0  0  0  0  0  0  0
    3.5060   -0.5654    0.1656 Cl  0  0  0  0  0  0  0  0  0  0  0  0
    0.9345   -1.3734    0.0364 C   0  0  0  0  0  0  0  0  0  0  0  0
   -0.4431   -1.1471   -0.0389 C   0  0  0  0  0  0  0  0  0  0  0  0
  1  2  1  0
  2  3  2  0
  3  4  1  0
  4  5  2  0
  5  6  1  0
  5  7  1  0
  7  8  2  0
  8  2  1  0
M  END
>  <target>  (705) 
-1.66

$$$$

     RDKit          3D

  8  7  0  0  0  0  0  0  0  0999 V2000
   -3.0352    0.3507    0.8537 C   0  0  0  0  0  0  0  0  0  0  0  0
   -1.5465    0.1062    1.0589 C   0  0  0  0  0  0  0  0  0  0  0  0
   -0.8003    0.0798   -0.2797 C   0  0  0  0  0  0  0  0  0  0  0  0
    0.7303   -0.1769   -0.1976 C   0  0  0  0  0  0  0  0  0  0  0  0
    1.0239   -1.5489    0.4377 C   0  0  0  0  0  0  0  0  0  0  0  0
    1.2855   -0.1915   -1.6386 C   0  0  0  0  0  0  0  0  0  0  0  0
    1.4294    0.9377    0.6116 C   0  0  0  0  0  0  0  0  0  0  0  0
    2.8416    0.7606    0.6110 O   0  0  0  0  0  0  0  0  0  0  0  0
  1  2  1  0
  2  3  1  0
  3  4  1  0
  4  5  1  0
  4  6  1  0
  4  7  1  0
  7  8  1  0
M  END
>  <target>  (706) 
-1.52

$$$$

     RDKit          3D

  5  5  0  0  0  0  0  0  0  0999 V2000
   -0.7018    0.7331    0.0914 C   0  0  0  0  0  0  0  0  0  0  0  0
    0.7050    0.7488   -0.0680 C   0  0  0  0  0  0  0  0  0  0  0  0
    1.0823   -0.5590   -0.2658 C   0  0  0  0  0  0  0  0  0  0  0  0
   -0.0030   -1.3753   -0.2379 O   0  0  0  0  0  0  0  0  0  0  0  0
   -1.0847   -0.5833   -0.0203 C   0  0  0  0  0  0  0  0  0  0  0  0
  1  2  1  0
  2  3  2  0
  3  4  1  0
  4  5  1  0
  5  1  2  0
M  END
>  <target>  (707) 
-0.82

$$$$

     RDKit          3D

 18 18  0  0  0  0  0  0  0  0999 V2000
    6.4787    0.1381    0.5133 C   0  0  0  0  0  0  0  0  0  0  0  0
    5.1809   -0.4095    0.7058 O   0  0  0  0  0  0  0  0  0  0  0  0
    4.2749    0.0163   -0.3090 C   0  0  0  0  0  0  0  0  0  0  0  0
    2.9104   -0.6147   -0.0628 C   0  0  0  0  0  0  0  0  0  0  0  0
    2.3197   -0.1773    1.2795 C   0  0  0  0  0  0  0  0  0  0  0  0
    0.9931   -0.7403    1.4897 N   0  0  0  0  0  0  0  0  0  0  0  0
   -0.0434   -0.2270    0.7270 C   0  0  0  0  0  0  0  0  0  0  0  0
   -1.0015   -1.0865    0.4128 N   0  0  0  0  0  0  0  0  0  0  0  0
   -1.9967   -0.6109   -0.3227 C   0  0  0  0  0  0  0  0  0  0  0  0
   -2.9803   -1.5284   -0.6545 N   0  0  0  0  0  0  0  0  0  0  0  0
   -4.3352   -1.0292   -0.8475 C   0  0  0  0  0  0  0  0  0  0  0  0
   -4.9822   -0.6800    0.4927 C   0  0  0  0  0  0  0  0  0  0  0  0
   -5.1450   -2.1188   -1.5518 C   0  0  0  0  0  0  0  0  0  0  0  0
   -2.0804    0.6418   -0.7370 N   0  0  0  0  0  0  0  0  0  0  0  0
   -1.0776    1.4255   -0.3641 C   0  0  0  0  0  0  0  0  0  0  0  0
   -1.1595    3.1162   -0.9150 S   0  0  0  0  0  0  0  0  0  0  0  0
   -0.0163    3.8854    0.2573 C   0  0  0  0  0  0  0  0  0  0  0  0
   -0.0329    1.0437    0.3588 N   0  0  0  0  0  0  0  0  0  0  0  0
  1  2  1  0
  2  3  1  0
  3  4  1  0
  4  5  1  0
  5  6  1  0
  6  7  1  0
  7  8  2  0
  8  9  1  0
  9 10  1  0
 10 11  1  0
 11 12  1  0
 11 13  1  0
  9 14  2  0
 14 15  1  0
 15 16  1  0
 16 17  1  0
 15 18  2  0
 18  7  1  0
M  END
>  <target>  (708) 
-2.928

$$$$

     RDKit          3D

 16 18  0  0  0  0  0  0  0  0999 V2000
    5.2020   -0.4482   -0.7909 C   0  0  0  0  0  0  0  0  0  0  0  0
    3.9922   -0.1574   -0.0407 N   0  0  0  0  0  0  0  0  0  0  0  0
    4.1864    0.5988    1.1892 C   0  0  0  0  0  0  0  0  0  0  0  0
    2.7980   -0.1716   -0.7511 C   0  0  0  0  0  0  0  0  0  0  0  0
    2.7338   -0.4052   -1.9548 O   0  0  0  0  0  0  0  0  0  0  0  0
    1.6822    0.0899    0.0057 N   0  0  0  0  0  0  0  0  0  0  0  0
    0.3647    0.0735   -0.6083 C   0  0  0  0  0  0  0  0  0  0  0  0
   -0.1546   -1.3617   -0.8624 C   0  0  0  0  0  0  0  0  0  0  0  0
   -1.4865   -1.3936   -0.0839 C   0  0  0  0  0  0  0  0  0  0  0  0
   -1.1205   -0.5699    1.1527 C   0  0  0  0  0  0  0  0  0  0  0  0
   -0.7130    0.6631    0.3351 C   0  0  0  0  0  0  0  0  0  0  0  0
   -1.9760    0.9371   -0.5099 C   0  0  0  0  0  0  0  0  0  0  0  0
   -3.1102    1.6596    0.2182 C   0  0  0  0  0  0  0  0  0  0  0  0
   -4.3635    0.9245   -0.2324 C   0  0  0  0  0  0  0  0  0  0  0  0
   -3.9281   -0.5330   -0.2563 C   0  0  0  0  0  0  0  0  0  0  0  0
   -2.5032   -0.4883   -0.8111 C   0  0  0  0  0  0  0  0  0  0  0  0
  1  2  1  0
  2  3  1  0
  2  4  1  0
  4  5  2  0
  4  6  1  0
  6  7  1  0
  7  8  1  0
  8  9  1  0
  9 10  1  0
 10 11  1  0
 11 12  1  0
 12 13  1  0
 13 14  1  0
 14 15  1  0
 15 16  1  0
 11  7  1  0
 16  9  1  0
 16 12  1  0
M  END
>  <target>  (709) 
-3.1710000000000003

$$$$

     RDKit          3D

 10 10  0  0  0  0  0  0  0  0999 V2000
   -1.6028   -0.4540   -1.4263 C   0  0  0  0  0  0  0  0  0  0  0  0
   -1.1327   -0.0624   -0.0086 C   0  0  0  0  0  0  0  0  0  0  0  0
   -1.8670    1.2433    0.3714 C   0  0  0  0  0  0  0  0  0  0  0  0
   -1.5831   -1.1472    0.9936 C   0  0  0  0  0  0  0  0  0  0  0  0
    0.4012    0.0574    0.0132 C   0  0  0  0  0  0  0  0  0  0  0  0
    1.2021   -1.0557   -0.3122 C   0  0  0  0  0  0  0  0  0  0  0  0
    2.5977   -0.9808   -0.3021 C   0  0  0  0  0  0  0  0  0  0  0  0
    3.2284    0.2112    0.0342 C   0  0  0  0  0  0  0  0  0  0  0  0
    2.4624    1.3254    0.3596 C   0  0  0  0  0  0  0  0  0  0  0  0
    1.0652    1.2493    0.3492 C   0  0  0  0  0  0  0  0  0  0  0  0
  1  2  1  0
  2  3  1  0
  2  4  1  0
  2  5  1  0
  5  6  2  0
  6  7  1  0
  7  8  2  0
  8  9  1  0
  9 10  2  0
 10  5  1  0
M  END
>  <target>  (710) 
-3.66

$$$$

     RDKit          3D

 24 26  0  0  0  0  0  0  0  0999 V2000
    5.5162    1.3035    0.8512 C   0  0  0  0  0  0  0  0  0  0  0  0
    4.6909    0.4101   -0.0366 C   0  0  0  0  0  0  0  0  0  0  0  0
    4.8701   -0.8070   -0.0611 O   0  0  0  0  0  0  0  0  0  0  0  0
    3.6736    1.0967   -0.9276 C   0  0  0  0  0  0  0  0  0  0  0  0
    2.5796    0.1662   -1.4561 C   0  0  0  0  0  0  0  0  0  0  0  0
    1.7602   -0.5771   -0.3936 C   0  0  0  0  0  0  0  0  0  0  0  0
    0.6751   -1.3846   -1.0639 C   0  0  0  0  0  0  0  0  0  0  0  0
    0.8937   -2.2565   -1.8933 O   0  0  0  0  0  0  0  0  0  0  0  0
   -0.5455   -0.9826   -0.5019 N   0  0  0  0  0  0  0  0  0  0  0  0
   -0.3434    0.1112    0.3787 N   0  0  0  0  0  0  0  0  0  0  0  0
    1.0295    0.3403    0.5534 C   0  0  0  0  0  0  0  0  0  0  0  0
    1.5897    1.1627    1.2660 O   0  0  0  0  0  0  0  0  0  0  0  0
   -1.2833    1.1853    0.4992 C   0  0  0  0  0  0  0  0  0  0  0  0
   -1.1505    2.1488    1.5099 C   0  0  0  0  0  0  0  0  0  0  0  0
   -2.0701    3.1957    1.6346 C   0  0  0  0  0  0  0  0  0  0  0  0
   -3.1373    3.2973    0.7481 C   0  0  0  0  0  0  0  0  0  0  0  0
   -3.2864    2.3523   -0.2617 C   0  0  0  0  0  0  0  0  0  0  0  0
   -2.3683    1.3049   -0.3844 C   0  0  0  0  0  0  0  0  0  0  0  0
   -1.6486   -1.8866   -0.3710 C   0  0  0  0  0  0  0  0  0  0  0  0
   -1.9157   -2.8510   -1.3535 C   0  0  0  0  0  0  0  0  0  0  0  0
   -3.0005   -3.7267   -1.2318 C   0  0  0  0  0  0  0  0  0  0  0  0
   -3.8381   -3.6539   -0.1237 C   0  0  0  0  0  0  0  0  0  0  0  0
   -3.5896   -2.7072    0.8643 C   0  0  0  0  0  0  0  0  0  0  0  0
   -2.5046   -1.8324    0.7417 C   0  0  0  0  0  0  0  0  0  0  0  0
  1  2  1  0
  2  3  2  0
  2  4  1  0
  4  5  1  0
  5  6  1  0
  6  7  1  0
  7  8  2  0
  7  9  1  0
  9 10  1  0
 10 11  1  0
 11 12  2  0
 10 13  1  0
 13 14  2  0
 14 15  1  0
 15 16  2  0
 16 17  1  0
 17 18  2  0
  9 19  1  0
 19 20  2  0
 20 21  1  0
 21 22  2  0
 22 23  1  0
 23 24  2  0
 11  6  1  0
 18 13  1  0
 24 19  1  0
M  END
>  <target>  (711) 
-3.27

$$$$

     RDKit          3D

 29 32  0  0  0  0  0  0  0  0999 V2000
    6.9709    0.2101   -1.2748 C   0  0  0  0  0  0  0  0  0  0  0  0
    6.2155   -0.5326   -0.2159 C   0  0  0  0  0  0  0  0  0  0  0  0
    6.2831   -1.7371   -0.0312 O   0  0  0  0  0  0  0  0  0  0  0  0
    5.4385    0.3336    0.4985 O   0  0  0  0  0  0  0  0  0  0  0  0
    4.6804   -0.2783    1.5413 C   0  0  0  0  0  0  0  0  0  0  0  0
    3.3594   -0.8841    1.0654 C   0  0  0  0  0  0  0  0  0  0  0  0
    3.0449   -2.0246    1.4093 O   0  0  0  0  0  0  0  0  0  0  0  0
    2.4322    0.0299    0.2186 C   0  0  0  0  0  0  0  0  0  0  0  0
    3.1234    0.4537   -0.9666 O   0  0  0  0  0  0  0  0  0  0  0  0
    2.0287    1.2948    0.9960 C   0  0  0  0  0  0  0  0  0  0  0  0
    0.6742    1.7344    0.4261 C   0  0  0  0  0  0  0  0  0  0  0  0
    0.2877    0.6908   -0.6369 C   0  0  0  0  0  0  0  0  0  0  0  0
   -1.2274    0.4943   -0.8558 C   0  0  0  0  0  0  0  0  0  0  0  0
   -1.8872    1.8207   -1.2647 C   0  0  0  0  0  0  0  0  0  0  0  0
   -3.3584    1.6296   -1.5995 C   0  0  0  0  0  0  0  0  0  0  0  0
   -4.0681    1.0213   -0.4201 C   0  0  0  0  0  0  0  0  0  0  0  0
   -5.0936    1.6810    0.1496 C   0  0  0  0  0  0  0  0  0  0  0  0
   -5.7891    1.1662    1.3450 C   0  0  0  0  0  0  0  0  0  0  0  0
   -6.7398    1.7609    1.8372 O   0  0  0  0  0  0  0  0  0  0  0  0
   -5.2847   -0.0901    1.9213 C   0  0  0  0  0  0  0  0  0  0  0  0
   -4.2683   -0.7503    1.3513 C   0  0  0  0  0  0  0  0  0  0  0  0
   -3.5204   -0.3263    0.0894 C   0  0  0  0  0  0  0  0  0  0  0  0
   -3.8277   -1.4139   -0.9662 C   0  0  0  0  0  0  0  0  0  0  0  0
   -1.9575   -0.1772    0.3491 C   0  0  0  0  0  0  0  0  0  0  0  0
   -1.2096   -1.4933    0.6950 C   0  0  0  0  0  0  0  0  0  0  0  0
   -1.7350   -2.0856    1.8801 O   0  0  0  0  0  0  0  0  0  0  0  0
    0.2884   -1.2717    0.9491 C   0  0  0  0  0  0  0  0  0  0  0  0
    1.0523   -0.5856   -0.2074 C   0  0  0  0  0  0  0  0  0  0  0  0
    1.2059   -1.5667   -1.3854 C   0  0  0  0  0  0  0  0  0  0  0  0
  1  2  1  0
  2  3  2  0
  2  4  1  0
  4  5  1  0
  5  6  1  0
  6  7  2  0
  6  8  1  0
  8  9  1  0
  8 10  1  0
 10 11  1  0
 11 12  1  0
 12 13  1  0
 13 14  1  0
 14 15  1  0
 15 16  1  0
 16 17  2  0
 17 18  1  0
 18 19  2  0
 18 20  1  0
 20 21  2  0
 21 22  1  0
 22 23  1  0
 22 24  1  0
 24 25  1  0
 25 26  1  0
 25 27  1  0
 27 28  1  0
 28 29  1  0
 22 16  1  0
 24 13  1  0
 28  8  1  0
 28 12  1  0
M  END
>  <target>  (712) 
-4.37

$$$$

     RDKit          3D

  5  4  0  0  0  0  0  0  0  0999 V2000
   -1.9860   -0.1043    0.3532 C   0  0  0  0  0  0  0  0  0  0  0  0
   -1.1438   -0.0948   -0.9146 C   0  0  0  0  0  0  0  0  0  0  0  0
    0.3313   -0.3596   -0.6331 C   0  0  0  0  0  0  0  0  0  0  0  0
    0.8569    0.6968    0.1678 O   0  0  0  0  0  0  0  0  0  0  0  0
    2.2328    0.4974    0.4625 C   0  0  0  0  0  0  0  0  0  0  0  0
  1  2  1  0
  2  3  1  0
  3  4  1  0
  4  5  1  0
M  END
>  <target>  (713) 
-0.39

$$$$

     RDKit          3D

  7  6  0  0  0  0  0  0  0  0999 V2000
   -1.4550   -1.1766    0.0141 C   0  0  0  0  0  0  0  0  0  0  0  0
   -0.8752    0.2212   -0.1700 C   0  0  0  0  0  0  0  0  0  0  0  0
   -1.6791    1.2468    0.6200 C   0  0  0  0  0  0  0  0  0  0  0  0
    0.4719    0.2553    0.3375 O   0  0  0  0  0  0  0  0  0  0  0  0
    1.4438   -0.1669   -0.5168 C   0  0  0  0  0  0  0  0  0  0  0  0
    1.2680   -0.5651   -1.6591 O   0  0  0  0  0  0  0  0  0  0  0  0
    2.7822   -0.0756    0.1500 C   0  0  0  0  0  0  0  0  0  0  0  0
  1  2  1  0
  2  3  1  0
  2  4  1  0
  4  5  1  0
  5  6  2  0
  5  7  1  0
M  END
>  <target>  (714) 
-0.55

$$$$

     RDKit          3D

  7  7  0  0  0  0  0  0  0  0999 V2000
    2.8426   -1.4756    0.2857 Br  0  0  0  0  0  0  0  0  0  0  0  0
    1.1711   -0.6080    0.1177 C   0  0  0  0  0  0  0  0  0  0  0  0
    1.1149    0.7849    0.0877 C   0  0  0  0  0  0  0  0  0  0  0  0
   -0.1197    1.4239   -0.0363 C   0  0  0  0  0  0  0  0  0  0  0  0
   -1.2900    0.6697   -0.1296 C   0  0  0  0  0  0  0  0  0  0  0  0
   -1.2284   -0.7240   -0.0992 C   0  0  0  0  0  0  0  0  0  0  0  0
    0.0046   -1.3661    0.0248 C   0  0  0  0  0  0  0  0  0  0  0  0
  1  2  1  0
  2  3  2  0
  3  4  1  0
  4  5  2  0
  5  6  1  0
  6  7  2  0
  7  2  1  0
M  END
>  <target>  (715) 
-2.55

$$$$

     RDKit          3D

 12 12  0  0  0  0  0  0  0  0999 V2000
    3.8480   -0.7531    0.8123 C   0  0  0  0  0  0  0  0  0  0  0  0
    3.0070   -0.0714   -0.2493 C   0  0  0  0  0  0  0  0  0  0  0  0
    1.6341   -0.1440    0.1543 O   0  0  0  0  0  0  0  0  0  0  0  0
    0.7686    0.4341   -0.7157 C   0  0  0  0  0  0  0  0  0  0  0  0
    1.0702    0.9825   -1.7639 O   0  0  0  0  0  0  0  0  0  0  0  0
   -0.6305    0.3140   -0.2212 C   0  0  0  0  0  0  0  0  0  0  0  0
   -0.9501   -0.3219    0.9884 C   0  0  0  0  0  0  0  0  0  0  0  0
   -2.2808   -0.4089    1.4094 C   0  0  0  0  0  0  0  0  0  0  0  0
   -3.2864    0.1402    0.6197 C   0  0  0  0  0  0  0  0  0  0  0  0
   -4.5958    0.0777    0.9923 O   0  0  0  0  0  0  0  0  0  0  0  0
   -2.9859    0.7731   -0.5809 C   0  0  0  0  0  0  0  0  0  0  0  0
   -1.6578    0.8610   -1.0031 C   0  0  0  0  0  0  0  0  0  0  0  0
  1  2  1  0
  2  3  1  0
  3  4  1  0
  4  5  2  0
  4  6  1  0
  6  7  2  0
  7  8  1  0
  8  9  2  0
  9 10  1  0
  9 11  1  0
 11 12  2  0
 12  6  1  0
M  END
>  <target>  (716) 
-2.35

$$$$

     RDKit          3D

 26 28  0  0  0  0  0  0  0  0999 V2000
    1.9793    2.8836    0.5789 O   0  0  0  0  0  0  0  0  0  0  0  0
    1.0114    2.1489    0.4768 C   0  0  0  0  0  0  0  0  0  0  0  0
    0.7139    1.0676    1.2336 N   0  0  0  0  0  0  0  0  0  0  0  0
    1.5440    0.5589    2.2877 C   0  0  0  0  0  0  0  0  0  0  0  0
    2.4382   -0.3909    1.7082 O   0  0  0  0  0  0  0  0  0  0  0  0
    3.2370   -0.9948    2.6240 C   0  0  0  0  0  0  0  0  0  0  0  0
    3.2333   -0.7617    3.8250 O   0  0  0  0  0  0  0  0  0  0  0  0
    4.1154   -2.0259    1.9624 C   0  0  0  0  0  0  0  0  0  0  0  0
    3.6260   -3.4421    2.2402 C   0  0  0  0  0  0  0  0  0  0  0  0
    2.3227   -3.7642    1.5228 C   0  0  0  0  0  0  0  0  0  0  0  0
   -0.3758    0.4148    0.7302 C   0  0  0  0  0  0  0  0  0  0  0  0
   -0.8296   -0.6370    1.1703 O   0  0  0  0  0  0  0  0  0  0  0  0
   -0.9015    1.1998   -0.5125 C   0  0  0  0  0  0  0  0  0  0  0  0
    0.0421    2.3036   -0.4797 N   0  0  0  0  0  0  0  0  0  0  0  0
   -2.3472    1.6521   -0.2632 C   0  0  0  0  0  0  0  0  0  0  0  0
   -3.3839    0.6981   -0.2538 C   0  0  0  0  0  0  0  0  0  0  0  0
   -4.7095    1.0749   -0.0297 C   0  0  0  0  0  0  0  0  0  0  0  0
   -5.0258    2.4116    0.1925 C   0  0  0  0  0  0  0  0  0  0  0  0
   -4.0174    3.3714    0.1936 C   0  0  0  0  0  0  0  0  0  0  0  0
   -2.6897    2.9969   -0.0304 C   0  0  0  0  0  0  0  0  0  0  0  0
   -0.7130    0.4634   -1.8492 C   0  0  0  0  0  0  0  0  0  0  0  0
   -0.0487   -0.7720   -1.9493 C   0  0  0  0  0  0  0  0  0  0  0  0
    0.1319   -1.3933   -3.1882 C   0  0  0  0  0  0  0  0  0  0  0  0
   -0.3430   -0.7929   -4.3504 C   0  0  0  0  0  0  0  0  0  0  0  0
   -0.9992    0.4316   -4.2780 C   0  0  0  0  0  0  0  0  0  0  0  0
   -1.1792    1.0557   -3.0418 C   0  0  0  0  0  0  0  0  0  0  0  0
  1  2  2  0
  2  3  1  0
  3  4  1  0
  4  5  1  0
  5  6  1  0
  6  7  2  0
  6  8  1  0
  8  9  1  0
  9 10  1  0
  3 11  1  0
 11 12  2  0
 11 13  1  0
 13 14  1  0
 13 15  1  0
 15 16  2  0
 16 17  1  0
 17 18  2  0
 18 19  1  0
 19 20  2  0
 13 21  1  0
 21 22  2  0
 22 23  1  0
 23 24  2  0
 24 25  1  0
 25 26  2  0
 14  2  1  0
 20 15  1  0
 26 21  1  0
M  END
>  <target>  (717) 
-5.071000000000001

$$$$

     RDKit          3D

 25 28  0  0  0  0  0  0  0  0999 V2000
    7.0829   -1.9387   -0.3316 C   0  0  0  0  0  0  0  0  0  0  0  0
    5.6544   -1.6754   -0.7742 C   0  0  0  0  0  0  0  0  0  0  0  0
    4.9084   -0.8033    0.2069 C   0  0  0  0  0  0  0  0  0  0  0  0
    5.3695   -0.3423    1.2407 O   0  0  0  0  0  0  0  0  0  0  0  0
    3.6361   -0.6100   -0.2429 O   0  0  0  0  0  0  0  0  0  0  0  0
    2.8008    0.1980    0.5913 C   0  0  0  0  0  0  0  0  0  0  0  0
    2.2902   -0.5735    1.8112 C   0  0  0  0  0  0  0  0  0  0  0  0
    0.8696   -0.0706    2.0699 C   0  0  0  0  0  0  0  0  0  0  0  0
    0.5946    1.0121    1.0104 C   0  0  0  0  0  0  0  0  0  0  0  0
   -0.8860    1.1940    0.6107 C   0  0  0  0  0  0  0  0  0  0  0  0
   -1.7634    1.4513    1.8448 C   0  0  0  0  0  0  0  0  0  0  0  0
   -3.2094    1.7179    1.4528 C   0  0  0  0  0  0  0  0  0  0  0  0
   -3.7710    0.5925    0.6176 C   0  0  0  0  0  0  0  0  0  0  0  0
   -4.9334    0.0171    0.9722 C   0  0  0  0  0  0  0  0  0  0  0  0
   -5.5846   -1.0074    0.1256 C   0  0  0  0  0  0  0  0  0  0  0  0
   -6.6158   -1.5482    0.5163 O   0  0  0  0  0  0  0  0  0  0  0  0
   -4.9944   -1.2804   -1.2314 C   0  0  0  0  0  0  0  0  0  0  0  0
   -3.4779   -1.1752   -1.1756 C   0  0  0  0  0  0  0  0  0  0  0  0
   -2.9613    0.1870   -0.6203 C   0  0  0  0  0  0  0  0  0  0  0  0
   -3.1600    1.2729   -1.7021 C   0  0  0  0  0  0  0  0  0  0  0  0
   -1.4434    0.0102   -0.2235 C   0  0  0  0  0  0  0  0  0  0  0  0
   -0.5233   -0.2655   -1.4299 C   0  0  0  0  0  0  0  0  0  0  0  0
    0.9204   -0.5241   -1.0010 C   0  0  0  0  0  0  0  0  0  0  0  0
    1.5196    0.6279   -0.1622 C   0  0  0  0  0  0  0  0  0  0  0  0
    1.8255    1.8302   -1.0709 C   0  0  0  0  0  0  0  0  0  0  0  0
  1  2  1  0
  2  3  1  0
  3  4  2  0
  3  5  1  0
  5  6  1  0
  6  7  1  0
  7  8  1  0
  8  9  1  0
  9 10  1  0
 10 11  1  0
 11 12  1  0
 12 13  1  0
 13 14  2  0
 14 15  1  0
 15 16  2  0
 15 17  1  0
 17 18  1  0
 18 19  1  0
 19 20  1  0
 19 21  1  0
 21 22  1  0
 22 23  1  0
 23 24  1  0
 24 25  1  0
 19 13  1  0
 21 10  1  0
 24  6  1  0
 24  9  1  0
M  END
>  <target>  (718) 
-5.37

$$$$

     RDKit          3D

 24 30  0  0  0  0  0  0  0  0999 V2000
    3.0223   -2.1636   -0.1370 C   0  0  0  0  0  0  0  0  0  0  0  0
    3.6077   -0.8955   -0.1280 C   0  0  0  0  0  0  0  0  0  0  0  0
    2.8143    0.2583   -0.0797 C   0  0  0  0  0  0  0  0  0  0  0  0
    3.3861    1.5374   -0.0700 C   0  0  0  0  0  0  0  0  0  0  0  0
    2.5812    2.6778   -0.0216 C   0  0  0  0  0  0  0  0  0  0  0  0
    1.1851    2.5668    0.0183 C   0  0  0  0  0  0  0  0  0  0  0  0
    0.3638    3.7010    0.0670 C   0  0  0  0  0  0  0  0  0  0  0  0
   -1.0265    3.5734    0.1064 C   0  0  0  0  0  0  0  0  0  0  0  0
   -1.6292    2.3086    0.0980 C   0  0  0  0  0  0  0  0  0  0  0  0
   -3.0223    2.1636    0.1370 C   0  0  0  0  0  0  0  0  0  0  0  0
   -3.6077    0.8955    0.1280 C   0  0  0  0  0  0  0  0  0  0  0  0
   -2.8143   -0.2583    0.0797 C   0  0  0  0  0  0  0  0  0  0  0  0
   -3.3861   -1.5374    0.0700 C   0  0  0  0  0  0  0  0  0  0  0  0
   -2.5812   -2.6779    0.0216 C   0  0  0  0  0  0  0  0  0  0  0  0
   -1.1851   -2.5668   -0.0183 C   0  0  0  0  0  0  0  0  0  0  0  0
   -0.3638   -3.7010   -0.0671 C   0  0  0  0  0  0  0  0  0  0  0  0
    1.0265   -3.5734   -0.1064 C   0  0  0  0  0  0  0  0  0  0  0  0
    1.6292   -2.3086   -0.0980 C   0  0  0  0  0  0  0  0  0  0  0  0
    0.8150   -1.1549   -0.0490 C   0  0  0  0  0  0  0  0  0  0  0  0
    1.4079    0.1292   -0.0399 C   0  0  0  0  0  0  0  0  0  0  0  0
    0.5928    1.2841    0.0091 C   0  0  0  0  0  0  0  0  0  0  0  0
   -0.8150    1.1549    0.0490 C   0  0  0  0  0  0  0  0  0  0  0  0
   -1.4079   -0.1292    0.0399 C   0  0  0  0  0  0  0  0  0  0  0  0
   -0.5929   -1.2841   -0.0092 C   0  0  0  0  0  0  0  0  0  0  0  0
  1  2  2  0
  2  3  1  0
  3  4  2  0
  4  5  1  0
  5  6  2  0
  6  7  1  0
  7  8  2  0
  8  9  1  0
  9 10  2  0
 10 11  1  0
 11 12  2  0
 12 13  1  0
 13 14  2  0
 14 15  1  0
 15 16  2  0
 16 17  1  0
 17 18  2  0
 18 19  1  0
 19 20  2  0
 20 21  1  0
 21 22  2  0
 22 23  1  0
 23 24  2  0
 18  1  1  0
 20  3  1  0
 21  6  1  0
 22  9  1  0
 23 12  1  0
 24 15  1  0
 24 19  1  0
M  END
>  <target>  (719) 
-9.332

$$$$

     RDKit          3D

 10 11  0  0  0  0  0  0  0  0999 V2000
   -0.9549    2.4650   -0.0416 O   0  0  0  0  0  0  0  0  0  0  0  0
   -0.8139    1.2490   -0.0134 C   0  0  0  0  0  0  0  0  0  0  0  0
   -1.8805    0.3679    0.0340 N   0  0  0  0  0  0  0  0  0  0  0  0
   -1.7325   -1.0081    0.0661 C   0  0  0  0  0  0  0  0  0  0  0  0
   -0.5979   -1.6415    0.0562 N   0  0  0  0  0  0  0  0  0  0  0  0
    0.4613   -0.7988    0.0100 C   0  0  0  0  0  0  0  0  0  0  0  0
    1.7757   -1.1599   -0.0111 N   0  0  0  0  0  0  0  0  0  0  0  0
    2.6170   -0.0998   -0.0580 N   0  0  0  0  0  0  0  0  0  0  0  0
    1.7929    0.9582   -0.0662 C   0  0  0  0  0  0  0  0  0  0  0  0
    0.4490    0.5731   -0.0252 C   0  0  0  0  0  0  0  0  0  0  0  0
  1  2  2  0
  2  3  1  0
  3  4  1  0
  4  5  2  0
  5  6  1  0
  6  7  1  0
  7  8  1  0
  8  9  2  0
  9 10  1  0
 10  2  1  0
 10  6  2  0
M  END
>  <target>  (720) 
-2.266

$$$$

     RDKit          3D

  3  2  0  0  0  0  0  0  0  0999 V2000
    1.8342   -0.6799   -0.5618 Cl  0  0  0  0  0  0  0  0  0  0  0  0
    0.5496    0.2049    0.1428 C   0  0  0  0  0  0  0  0  0  0  0  0
   -0.7321   -0.1002   -0.0586 C   0  0  0  0  0  0  0  0  0  0  0  0
  1  2  1  0
  2  3  2  0
M  END
>  <target>  (721) 
-1.75

$$$$

     RDKit          3D

 18 19  0  0  0  0  0  0  0  0999 V2000
   -3.6672   -1.3643   -0.5886 C   0  0  0  0  0  0  0  0  0  0  0  0
   -2.4494   -1.0851    0.1564 N   0  0  0  0  0  0  0  0  0  0  0  0
   -1.9709   -2.1717    1.0000 C   0  0  0  0  0  0  0  0  0  0  0  0
   -1.6253   -0.0587   -0.3330 C   0  0  0  0  0  0  0  0  0  0  0  0
   -1.9693    0.6011   -1.3196 O   0  0  0  0  0  0  0  0  0  0  0  0
   -0.2812    0.2081    0.3932 C   0  0  0  0  0  0  0  0  0  0  0  0
    0.1833    1.6648    0.2867 C   0  0  0  0  0  0  0  0  0  0  0  0
    0.2108    2.4781    1.4332 C   0  0  0  0  0  0  0  0  0  0  0  0
    0.6432    3.8041    1.3587 C   0  0  0  0  0  0  0  0  0  0  0  0
    1.0532    4.3374    0.1394 C   0  0  0  0  0  0  0  0  0  0  0  0
    1.0295    3.5467   -1.0066 C   0  0  0  0  0  0  0  0  0  0  0  0
    0.5983    2.2206   -0.9343 C   0  0  0  0  0  0  0  0  0  0  0  0
    0.8219   -0.7783    0.0017 C   0  0  0  0  0  0  0  0  0  0  0  0
    1.8013   -1.1290    0.9472 C   0  0  0  0  0  0  0  0  0  0  0  0
    2.8226   -2.0223    0.6194 C   0  0  0  0  0  0  0  0  0  0  0  0
    2.8853   -2.5710   -0.6591 C   0  0  0  0  0  0  0  0  0  0  0  0
    1.9320   -2.2217   -1.6126 C   0  0  0  0  0  0  0  0  0  0  0  0
    0.9096   -1.3279   -1.2877 C   0  0  0  0  0  0  0  0  0  0  0  0
  1  2  1  0
  2  3  1  0
  2  4  1  0
  4  5  2  0
  4  6  1  0
  6  7  1  0
  7  8  2  0
  8  9  1  0
  9 10  2  0
 10 11  1  0
 11 12  2  0
  6 13  1  0
 13 14  2  0
 14 15  1  0
 15 16  2  0
 16 17  1  0
 17 18  2  0
 12  7  1  0
 18 13  1  0
M  END
>  <target>  (722) 
-2.98

$$$$

     RDKit          3D

  5  4  0  0  0  0  0  0  0  0999 V2000
    1.9411   -0.3436   -0.0875 Br  0  0  0  0  0  0  0  0  0  0  0  0
   -0.0000   -0.0000    0.0000 C   0  0  0  0  0  0  0  0  0  0  0  0
   -0.3532    1.8922   -0.4338 Br  0  0  0  0  0  0  0  0  0  0  0  0
   -0.6558   -0.3912    1.8194 Br  0  0  0  0  0  0  0  0  0  0  0  0
   -0.9321   -1.1574   -1.2981 Br  0  0  0  0  0  0  0  0  0  0  0  0
  1  2  1  0
  2  3  1  0
  2  4  1  0
  2  5  1  0
M  END
>  <target>  (723) 
-3.14

$$$$

     RDKit          3D

 22 24  0  0  0  0  0  0  0  0999 V2000
   -2.2281    2.6576   -1.7992 C   0  0  0  0  0  0  0  0  0  0  0  0
   -1.0360    2.2061   -0.9563 C   0  0  0  0  0  0  0  0  0  0  0  0
   -1.2029    0.8197   -0.4790 N   0  0  0  0  0  0  0  0  0  0  0  0
   -0.0356    0.0194   -0.3860 C   0  0  0  0  0  0  0  0  0  0  0  0
    1.2380    0.6047   -0.1812 C   0  0  0  0  0  0  0  0  0  0  0  0
    2.4448   -0.1162   -0.1697 C   0  0  0  0  0  0  0  0  0  0  0  0
    3.6793    0.5183    0.0265 N   0  0  0  0  0  0  0  0  0  0  0  0
    3.6970    1.7341    0.8430 C   0  0  0  0  0  0  0  0  0  0  0  0
    4.8992   -0.2852    0.0802 C   0  0  0  0  0  0  0  0  0  0  0  0
    2.3316   -1.4888   -0.4166 C   0  0  0  0  0  0  0  0  0  0  0  0
    1.0894   -2.1312   -0.5905 C   0  0  0  0  0  0  0  0  0  0  0  0
    1.0880   -3.6227   -0.8096 C   0  0  0  0  0  0  0  0  0  0  0  0
   -0.1015   -1.3774   -0.5309 C   0  0  0  0  0  0  0  0  0  0  0  0
   -1.3180   -2.0665   -0.6866 N   0  0  0  0  0  0  0  0  0  0  0  0
   -2.5822   -1.7618   -0.2573 C   0  0  0  0  0  0  0  0  0  0  0  0
   -3.4856   -2.5681   -0.4958 O   0  0  0  0  0  0  0  0  0  0  0  0
   -2.8860   -0.5891    0.5811 C   0  0  0  0  0  0  0  0  0  0  0  0
   -3.9391   -0.7145    1.5033 C   0  0  0  0  0  0  0  0  0  0  0  0
   -4.3253    0.3735    2.2727 C   0  0  0  0  0  0  0  0  0  0  0  0
   -3.6546    1.5613    2.0786 C   0  0  0  0  0  0  0  0  0  0  0  0
   -2.6499    1.7158    1.1894 N   0  0  0  0  0  0  0  0  0  0  0  0
   -2.2555    0.6435    0.4422 C   0  0  0  0  0  0  0  0  0  0  0  0
  1  2  1  0
  2  3  1  0
  3  4  1  0
  4  5  2  0
  5  6  1  0
  6  7  1  0
  7  8  1  0
  7  9  1  0
  6 10  2  0
 10 11  1  0
 11 12  1  0
 11 13  2  0
 13 14  1  0
 14 15  1  0
 15 16  2  0
 15 17  1  0
 17 18  2  0
 18 19  1  0
 19 20  2  0
 20 21  1  0
 21 22  2  0
 13  4  1  0
 22  3  1  0
 22 17  1  0
M  END
>  <target>  (724) 
-4.871

$$$$

     RDKit          3D

 11 12  0  0  0  0  0  0  0  0999 V2000
   -1.9957   -2.3253    0.1409 O   0  0  0  0  0  0  0  0  0  0  0  0
   -1.6428   -1.1640    0.1095 C   0  0  0  0  0  0  0  0  0  0  0  0
   -2.4218   -0.0483    0.1469 N   0  0  0  0  0  0  0  0  0  0  0  0
   -1.6890    1.0976    0.0926 C   0  0  0  0  0  0  0  0  0  0  0  0
   -2.0889    2.2438    0.1069 O   0  0  0  0  0  0  0  0  0  0  0  0
   -0.2877    0.6870    0.0114 C   0  0  0  0  0  0  0  0  0  0  0  0
    0.8657    1.4419   -0.0649 C   0  0  0  0  0  0  0  0  0  0  0  0
    2.0780    0.7473   -0.1322 C   0  0  0  0  0  0  0  0  0  0  0  0
    2.1068   -0.6638   -0.1217 C   0  0  0  0  0  0  0  0  0  0  0  0
    0.9238   -1.4062   -0.0437 C   0  0  0  0  0  0  0  0  0  0  0  0
   -0.2594   -0.6980    0.0217 C   0  0  0  0  0  0  0  0  0  0  0  0
  1  2  2  0
  2  3  1  0
  3  4  1  0
  4  5  2  0
  4  6  1  0
  6  7  2  0
  7  8  1  0
  8  9  2  0
  9 10  1  0
 10 11  2  0
 11  2  1  0
 11  6  1  0
M  END
>  <target>  (725) 
-2.61

$$$$

     RDKit          3D

 22 24  0  0  0  0  0  0  0  0999 V2000
   -0.0691    0.4976   -2.0961 O   0  0  0  0  0  0  0  0  0  0  0  0
   -0.0180    0.3262   -0.6651 C   0  0  0  0  0  0  0  0  0  0  0  0
    1.1621   -0.6285   -0.3566 C   0  0  0  0  0  0  0  0  0  0  0  0
    2.3564   -0.5352   -1.1027 C   0  0  0  0  0  0  0  0  0  0  0  0
    3.4472   -1.3646   -0.8284 C   0  0  0  0  0  0  0  0  0  0  0  0
    3.3668   -2.2937    0.2036 C   0  0  0  0  0  0  0  0  0  0  0  0
    4.7090   -3.3137    0.5447 Cl  0  0  0  0  0  0  0  0  0  0  0  0
    2.2078   -2.3950    0.9678 C   0  0  0  0  0  0  0  0  0  0  0  0
    1.1156   -1.5646    0.6954 C   0  0  0  0  0  0  0  0  0  0  0  0
    0.2497    1.7288   -0.1269 C   0  0  0  0  0  0  0  0  0  0  0  0
   -0.2565    2.8652   -0.7390 C   0  0  0  0  0  0  0  0  0  0  0  0
   -0.0885    4.1226   -0.2759 N   0  0  0  0  0  0  0  0  0  0  0  0
    0.6230    4.2359    0.8524 C   0  0  0  0  0  0  0  0  0  0  0  0
    1.1572    3.2226    1.5476 N   0  0  0  0  0  0  0  0  0  0  0  0
    0.9574    1.9894    1.0357 C   0  0  0  0  0  0  0  0  0  0  0  0
   -1.3991   -0.2484   -0.2631 C   0  0  0  0  0  0  0  0  0  0  0  0
   -2.1492    0.3287    0.7889 C   0  0  0  0  0  0  0  0  0  0  0  0
   -3.3924   -0.1821    1.1763 C   0  0  0  0  0  0  0  0  0  0  0  0
   -3.9241   -1.2899    0.5309 C   0  0  0  0  0  0  0  0  0  0  0  0
   -3.2094   -1.8910   -0.4997 C   0  0  0  0  0  0  0  0  0  0  0  0
   -1.9622   -1.3841   -0.8923 C   0  0  0  0  0  0  0  0  0  0  0  0
   -1.1628   -2.2511   -2.1635 Cl  0  0  0  0  0  0  0  0  0  0  0  0
  1  2  1  0
  2  3  1  0
  3  4  2  0
  4  5  1  0
  5  6  2  0
  6  7  1  0
  6  8  1  0
  8  9  2  0
  2 10  1  0
 10 11  2  0
 11 12  1  0
 12 13  2  0
 13 14  1  0
 14 15  2  0
  2 16  1  0
 16 17  2  0
 17 18  1  0
 18 19  2  0
 19 20  1  0
 20 21  2  0
 21 22  1  0
  9  3  1  0
 15 10  1  0
 21 16  1  0
M  END
>  <target>  (726) 
-4.38

$$$$

     RDKit          3D

 10 10  0  0  0  0  0  0  0  0999 V2000
   -3.4004    0.4472   -0.3267 C   0  0  0  0  0  0  0  0  0  0  0  0
   -1.9864    0.6316   -0.2475 O   0  0  0  0  0  0  0  0  0  0  0  0
   -1.2810   -0.5272   -0.2212 C   0  0  0  0  0  0  0  0  0  0  0  0
   -1.7556   -1.6517   -0.2591 O   0  0  0  0  0  0  0  0  0  0  0  0
    0.1798   -0.2531   -0.1384 C   0  0  0  0  0  0  0  0  0  0  0  0
    1.0568   -1.3463   -0.1020 C   0  0  0  0  0  0  0  0  0  0  0  0
    2.4358   -1.1416   -0.0245 C   0  0  0  0  0  0  0  0  0  0  0  0
    2.9465    0.1550    0.0172 C   0  0  0  0  0  0  0  0  0  0  0  0
    2.0815    1.2483   -0.0185 C   0  0  0  0  0  0  0  0  0  0  0  0
    0.7009    1.0476   -0.0961 C   0  0  0  0  0  0  0  0  0  0  0  0
  1  2  1  0
  2  3  1  0
  3  4  2  0
  3  5  1  0
  5  6  2  0
  6  7  1  0
  7  8  2  0
  8  9  1  0
  9 10  2  0
 10  5  1  0
M  END
>  <target>  (727) 
-1.85

$$$$

     RDKit          3D

  9  9  0  0  0  0  0  0  0  0999 V2000
   -2.1534    0.0655   -0.1031 C   0  0  0  0  0  0  0  0  0  0  0  0
   -0.7009    0.0060   -0.0342 N   0  0  0  0  0  0  0  0  0  0  0  0
    0.0064    1.1875    0.0489 C   0  0  0  0  0  0  0  0  0  0  0  0
    1.3389    1.2096    0.1153 C   0  0  0  0  0  0  0  0  0  0  0  0
    2.0712   -0.0664    0.0990 C   0  0  0  0  0  0  0  0  0  0  0  0
    3.2946   -0.0926    0.1580 O   0  0  0  0  0  0  0  0  0  0  0  0
    1.3035   -1.1904    0.0153 N   0  0  0  0  0  0  0  0  0  0  0  0
   -0.0657   -1.2311   -0.0536 C   0  0  0  0  0  0  0  0  0  0  0  0
   -0.6466   -2.3115   -0.1264 O   0  0  0  0  0  0  0  0  0  0  0  0
  1  2  1  0
  2  3  1  0
  3  4  2  0
  4  5  1  0
  5  6  2  0
  5  7  1  0
  7  8  1  0
  8  9  2  0
  8  2  1  0
M  END
>  <target>  (728) 
-0.807

$$$$

     RDKit          3D

 24 26  0  0  0  0  0  0  0  0999 V2000
    6.0932    0.6257    1.5975 C   0  0  0  0  0  0  0  0  0  0  0  0
    5.0440    0.1722    0.5949 C   0  0  0  0  0  0  0  0  0  0  0  0
    3.7018   -0.1027    1.2742 C   0  0  0  0  0  0  0  0  0  0  0  0
    2.6495   -0.5610    0.2591 C   0  0  0  0  0  0  0  0  0  0  0  0
    1.3021   -0.8665    0.9176 C   0  0  0  0  0  0  0  0  0  0  0  0
    0.4723   -1.7647    0.0357 C   0  0  0  0  0  0  0  0  0  0  0  0
    0.8248   -2.8859   -0.3044 O   0  0  0  0  0  0  0  0  0  0  0  0
   -0.7425   -1.1048   -0.2017 N   0  0  0  0  0  0  0  0  0  0  0  0
   -0.7049    0.2020    0.3506 N   0  0  0  0  0  0  0  0  0  0  0  0
    0.4643    0.3723    1.1085 C   0  0  0  0  0  0  0  0  0  0  0  0
    0.8257    1.3431    1.7590 O   0  0  0  0  0  0  0  0  0  0  0  0
   -1.3500    1.3199   -0.2710 C   0  0  0  0  0  0  0  0  0  0  0  0
   -1.9166    1.2137   -1.5521 C   0  0  0  0  0  0  0  0  0  0  0  0
   -2.5500    2.3061   -2.1532 C   0  0  0  0  0  0  0  0  0  0  0  0
   -2.6226    3.5167   -1.4807 C   0  0  0  0  0  0  0  0  0  0  0  0
   -3.2466    4.5551   -2.1031 O   0  0  0  0  0  0  0  0  0  0  0  0
   -2.0728    3.6534   -0.2138 C   0  0  0  0  0  0  0  0  0  0  0  0
   -1.4405    2.5576    0.3858 C   0  0  0  0  0  0  0  0  0  0  0  0
   -1.9627   -1.8348   -0.3735 C   0  0  0  0  0  0  0  0  0  0  0  0
   -3.1754   -1.3597    0.1523 C   0  0  0  0  0  0  0  0  0  0  0  0
   -4.3675   -2.0700   -0.0236 C   0  0  0  0  0  0  0  0  0  0  0  0
   -4.3679   -3.2692   -0.7282 C   0  0  0  0  0  0  0  0  0  0  0  0
   -3.1772   -3.7576   -1.2562 C   0  0  0  0  0  0  0  0  0  0  0  0
   -1.9857   -3.0461   -1.0800 C   0  0  0  0  0  0  0  0  0  0  0  0
  1  2  1  0
  2  3  1  0
  3  4  1  0
  4  5  1  0
  5  6  1  0
  6  7  2  0
  6  8  1  0
  8  9  1  0
  9 10  1  0
 10 11  2  0
  9 12  1  0
 12 13  2  0
 13 14  1  0
 14 15  2  0
 15 16  1  0
 15 17  1  0
 17 18  2  0
  8 19  1  0
 19 20  2  0
 20 21  1  0
 21 22  2  0
 22 23  1  0
 23 24  2  0
 10  5  1  0
 18 12  1  0
 24 19  1  0
M  END
>  <target>  (729) 
-3.73

$$$$

     RDKit          3D

 16 17  0  0  0  0  0  0  0  0999 V2000
    3.9569    2.1780   -0.6375 Cl  0  0  0  0  0  0  0  0  0  0  0  0
    2.9554    0.8379   -0.2378 C   0  0  0  0  0  0  0  0  0  0  0  0
    3.5359   -0.3699    0.1390 C   0  0  0  0  0  0  0  0  0  0  0  0
    2.7217   -1.4564    0.4598 C   0  0  0  0  0  0  0  0  0  0  0  0
    1.3291   -1.3317    0.4038 C   0  0  0  0  0  0  0  0  0  0  0  0
    0.3832   -2.7235    0.8056 Cl  0  0  0  0  0  0  0  0  0  0  0  0
    0.7289   -0.1139    0.0270 C   0  0  0  0  0  0  0  0  0  0  0  0
    1.5674    0.9697   -0.2958 C   0  0  0  0  0  0  0  0  0  0  0  0
   -0.7326    0.0637   -0.0426 C   0  0  0  0  0  0  0  0  0  0  0  0
   -1.3846   -0.1800   -1.2669 C   0  0  0  0  0  0  0  0  0  0  0  0
   -2.7657   -0.0315   -1.3897 C   0  0  0  0  0  0  0  0  0  0  0  0
   -3.5205    0.3656   -0.2895 C   0  0  0  0  0  0  0  0  0  0  0  0
   -2.8974    0.6165    0.9364 C   0  0  0  0  0  0  0  0  0  0  0  0
   -3.9101    1.1104    2.2498 Cl  0  0  0  0  0  0  0  0  0  0  0  0
   -1.5067    0.4692    1.0675 C   0  0  0  0  0  0  0  0  0  0  0  0
   -0.7278    0.7911    2.5891 Cl  0  0  0  0  0  0  0  0  0  0  0  0
  1  2  1  0
  2  3  2  0
  3  4  1  0
  4  5  2  0
  5  6  1  0
  5  7  1  0
  7  8  2  0
  7  9  1  0
  9 10  2  0
 10 11  1  0
 11 12  2  0
 12 13  1  0
 13 14  1  0
 13 15  2  0
 15 16  1  0
  8  2  1  0
 15  9  1  0
M  END
>  <target>  (730) 
-6.47

$$$$

     RDKit          3D

 18 19  0  0  0  0  0  0  0  0999 V2000
   -4.7574    0.1777   -0.4513 C   0  0  0  0  0  0  0  0  0  0  0  0
   -3.6753   -0.5027    0.3765 C   0  0  0  0  0  0  0  0  0  0  0  0
   -2.2628   -0.2514   -0.1647 C   0  0  0  0  0  0  0  0  0  0  0  0
   -1.8587    1.1152    0.0044 N   0  0  0  0  0  0  0  0  0  0  0  0
   -0.5631    1.4980   -0.2204 C   0  0  0  0  0  0  0  0  0  0  0  0
   -0.2713    2.6529   -0.5028 O   0  0  0  0  0  0  0  0  0  0  0  0
    0.4597    0.4421   -0.0841 C   0  0  0  0  0  0  0  0  0  0  0  0
    1.8123    0.7308   -0.2875 C   0  0  0  0  0  0  0  0  0  0  0  0
    2.7653   -0.2742   -0.0888 C   0  0  0  0  0  0  0  0  0  0  0  0
    2.3625   -1.5471    0.3260 C   0  0  0  0  0  0  0  0  0  0  0  0
    3.4623   -2.8460    0.6205 Cl  0  0  0  0  0  0  0  0  0  0  0  0
    0.9996   -1.8160    0.5271 C   0  0  0  0  0  0  0  0  0  0  0  0
    0.0304   -0.8372    0.2871 C   0  0  0  0  0  0  0  0  0  0  0  0
   -1.3229   -1.0958    0.5593 N   0  0  0  0  0  0  0  0  0  0  0  0
    4.4755    0.0633   -0.3432 S   0  0  0  0  0  0  0  0  0  0  0  0
    4.5344    1.6758   -0.8206 N   0  0  0  0  0  0  0  0  0  0  0  0
    5.1502    0.0343    0.9323 O   0  0  0  0  0  0  0  0  0  0  0  0
    4.9224   -0.6757   -1.5001 O   0  0  0  0  0  0  0  0  0  0  0  0
  1  2  1  0
  2  3  1  0
  3  4  1  0
  4  5  1  0
  5  6  2  0
  5  7  1  0
  7  8  2  0
  8  9  1  0
  9 10  2  0
 10 11  1  0
 10 12  1  0
 12 13  2  0
 13 14  1  0
  9 15  1  0
 15 16  1  0
 15 17  2  0
 15 18  2  0
 13  7  1  0
 14  3  1  0
M  END
>  <target>  (731) 
-3.29

$$$$

     RDKit          3D

 14 14  0  0  0  0  0  0  0  0999 V2000
   -3.6101   -0.5719   -0.8500 C   0  0  0  0  0  0  0  0  0  0  0  0
   -2.4765    0.1156   -0.2527 N   0  0  0  0  0  0  0  0  0  0  0  0
   -2.7682    0.8357    0.9807 C   0  0  0  0  0  0  0  0  0  0  0  0
   -1.2050   -0.3539   -0.5952 C   0  0  0  0  0  0  0  0  0  0  0  0
   -1.0524   -1.3438   -1.3058 O   0  0  0  0  0  0  0  0  0  0  0  0
   -0.1747    0.4133   -0.0966 N   0  0  0  0  0  0  0  0  0  0  0  0
    1.2034    0.1190   -0.1335 C   0  0  0  0  0  0  0  0  0  0  0  0
    1.7158   -1.1449   -0.4333 C   0  0  0  0  0  0  0  0  0  0  0  0
    3.0970   -1.3700   -0.4359 C   0  0  0  0  0  0  0  0  0  0  0  0
    3.9804   -0.3340   -0.1304 C   0  0  0  0  0  0  0  0  0  0  0  0
    5.6718   -0.6814   -0.1501 Cl  0  0  0  0  0  0  0  0  0  0  0  0
    3.4756    0.9310    0.1824 C   0  0  0  0  0  0  0  0  0  0  0  0
    4.5010    2.2649    0.5804 Cl  0  0  0  0  0  0  0  0  0  0  0  0
    2.0927    1.1529    0.1836 C   0  0  0  0  0  0  0  0  0  0  0  0
  1  2  1  0
  2  3  1  0
  2  4  1  0
  4  5  2  0
  4  6  1  0
  6  7  1  0
  7  8  2  0
  8  9  1  0
  9 10  2  0
 10 11  1  0
 10 12  1  0
 12 13  1  0
 12 14  2  0
 14  7  1  0
M  END
>  <target>  (732) 
-3.8

$$$$

     RDKit          3D

  5  5  0  0  0  0  0  0  0  0999 V2000
    0.3273   -1.0508   -0.0538 C   0  0  0  0  0  0  0  0  0  0  0  0
   -1.1135   -0.5522    0.0522 C   0  0  0  0  0  0  0  0  0  0  0  0
   -0.9742    0.9165   -0.1724 C   0  0  0  0  0  0  0  0  0  0  0  0
    0.3014    1.3104   -0.1045 C   0  0  0  0  0  0  0  0  0  0  0  0
    1.2199    0.1683    0.1765 C   0  0  0  0  0  0  0  0  0  0  0  0
  1  2  1  0
  2  3  1  0
  3  4  2  0
  4  5  1  0
  5  1  1  0
M  END
>  <target>  (733) 
-2.1

$$$$

     RDKit          3D

 20 21  0  0  0  0  0  0  0  0999 V2000
   -1.7564    0.6373   -0.8774 C   0  0  0  0  0  0  0  0  0  0  0  0
   -1.4976    1.3605   -1.8407 O   0  0  0  0  0  0  0  0  0  0  0  0
   -2.9582   -0.0137   -0.7797 N   0  0  0  0  0  0  0  0  0  0  0  0
   -3.1921   -1.1018    0.0050 C   0  0  0  0  0  0  0  0  0  0  0  0
   -4.1545   -1.8364   -0.1932 O   0  0  0  0  0  0  0  0  0  0  0  0
   -2.2603   -1.4010    0.9518 N   0  0  0  0  0  0  0  0  0  0  0  0
   -0.9750   -0.9326    0.9090 C   0  0  0  0  0  0  0  0  0  0  0  0
   -0.0367   -1.5951    1.3469 O   0  0  0  0  0  0  0  0  0  0  0  0
   -0.8070    0.4556    0.2988 C   0  0  0  0  0  0  0  0  0  0  0  0
   -1.2897    1.4331    1.2513 O   0  0  0  0  0  0  0  0  0  0  0  0
    0.6597    0.7040   -0.1314 C   0  0  0  0  0  0  0  0  0  0  0  0
    0.8543    1.9952   -0.7564 O   0  0  0  0  0  0  0  0  0  0  0  0
    1.5767    0.7777    1.0817 C   0  0  0  0  0  0  0  0  0  0  0  0
    1.1829    1.1178    2.1985 O   0  0  0  0  0  0  0  0  0  0  0  0
    2.8971    0.4947    0.8492 N   0  0  0  0  0  0  0  0  0  0  0  0
    3.3626   -0.2400   -0.1987 C   0  0  0  0  0  0  0  0  0  0  0  0
    4.4819   -0.7417   -0.1790 O   0  0  0  0  0  0  0  0  0  0  0  0
    2.4995   -0.4825   -1.2237 N   0  0  0  0  0  0  0  0  0  0  0  0
    1.1410   -0.3743   -1.0976 C   0  0  0  0  0  0  0  0  0  0  0  0
    0.3786   -1.0974   -1.7356 O   0  0  0  0  0  0  0  0  0  0  0  0
  1  2  2  0
  1  3  1  0
  3  4  1  0
  4  5  2  0
  4  6  1  0
  6  7  1  0
  7  8  2  0
  7  9  1  0
  9 10  1  0
  9 11  1  0
 11 12  1  0
 11 13  1  0
 13 14  2  0
 13 15  1  0
 15 16  1  0
 16 17  2  0
 16 18  1  0
 18 19  1  0
 19 20  2  0
  9  1  1  0
 19 11  1  0
M  END
>  <target>  (734) 
-1.99

$$$$

     RDKit          3D

  9  8  0  0  0  0  0  0  0  0999 V2000
    4.7255    0.6429   -0.0429 C   0  0  0  0  0  0  0  0  0  0  0  0
    3.3091    0.5628    0.5039 C   0  0  0  0  0  0  0  0  0  0  0  0
    2.3825   -0.1915   -0.4495 C   0  0  0  0  0  0  0  0  0  0  0  0
    0.9581   -0.2704    0.1047 C   0  0  0  0  0  0  0  0  0  0  0  0
    0.0320   -1.0225   -0.8536 C   0  0  0  0  0  0  0  0  0  0  0  0
   -1.3797   -1.2316   -0.2981 C   0  0  0  0  0  0  0  0  0  0  0  0
   -2.1612    0.0714   -0.1160 C   0  0  0  0  0  0  0  0  0  0  0  0
   -3.5984   -0.2033    0.3291 C   0  0  0  0  0  0  0  0  0  0  0  0
   -4.3802    1.0873    0.5157 C   0  0  0  0  0  0  0  0  0  0  0  0
  1  2  1  0
  2  3  1  0
  3  4  1  0
  4  5  1  0
  5  6  1  0
  6  7  1  0
  7  8  1  0
  8  9  1  0
M  END
>  <target>  (735) 
-5.88

$$$$

     RDKit          3D

  8  8  0  0  0  0  0  0  0  0999 V2000
    2.3502   -0.7917    0.0614 O   0  0  0  0  0  0  0  0  0  0  0  0
    1.0451   -0.3849    0.0116 C   0  0  0  0  0  0  0  0  0  0  0  0
    0.1261   -1.2491   -0.5743 C   0  0  0  0  0  0  0  0  0  0  0  0
   -1.2178   -0.8795   -0.6492 C   0  0  0  0  0  0  0  0  0  0  0  0
   -1.6364    0.3513   -0.1385 C   0  0  0  0  0  0  0  0  0  0  0  0
   -0.7111    1.2172    0.4494 C   0  0  0  0  0  0  0  0  0  0  0  0
    0.6312    0.8470    0.5237 C   0  0  0  0  0  0  0  0  0  0  0  0
    1.7699    1.9187    1.2501 Cl  0  0  0  0  0  0  0  0  0  0  0  0
  1  2  1  0
  2  3  2  0
  3  4  1  0
  4  5  2  0
  5  6  1  0
  6  7  2  0
  7  8  1  0
  7  2  1  0
M  END
>  <target>  (736) 
-1.06

$$$$

     RDKit          3D

 19 22  0  0  0  0  0  0  0  0999 V2000
   -3.2895    2.3073   -0.0777 C   0  0  0  0  0  0  0  0  0  0  0  0
   -4.4367    1.5319   -0.0012 C   0  0  0  0  0  0  0  0  0  0  0  0
   -4.3065    0.1601    0.0689 C   0  0  0  0  0  0  0  0  0  0  0  0
   -3.0302   -0.4218    0.0826 C   0  0  0  0  0  0  0  0  0  0  0  0
   -1.8141    0.3199    0.0418 C   0  0  0  0  0  0  0  0  0  0  0  0
   -0.4382   -0.2273    0.0798 C   0  0  0  0  0  0  0  0  0  0  0  0
   -0.0666   -1.6009    0.3000 C   0  0  0  0  0  0  0  0  0  0  0  0
   -1.0353   -2.7054    0.6453 C   0  0  0  0  0  0  0  0  0  0  0  0
    1.2769   -2.0200    0.2282 C   0  0  0  0  0  0  0  0  0  0  0  0
    2.3188   -1.1355   -0.0080 C   0  0  0  0  0  0  0  0  0  0  0  0
    3.6371   -1.6267   -0.0657 C   0  0  0  0  0  0  0  0  0  0  0  0
    4.7138   -0.7757   -0.2859 C   0  0  0  0  0  0  0  0  0  0  0  0
    4.4794    0.5775   -0.4500 C   0  0  0  0  0  0  0  0  0  0  0  0
    3.1697    1.0678   -0.3930 C   0  0  0  0  0  0  0  0  0  0  0  0
    2.0360    0.2325   -0.1698 C   0  0  0  0  0  0  0  0  0  0  0  0
    0.6598    0.6818   -0.1075 C   0  0  0  0  0  0  0  0  0  0  0  0
    0.3694    2.0544   -0.2261 C   0  0  0  0  0  0  0  0  0  0  0  0
   -0.9205    2.5654   -0.1895 C   0  0  0  0  0  0  0  0  0  0  0  0
   -2.0096    1.7217   -0.0700 C   0  0  0  0  0  0  0  0  0  0  0  0
  1  2  2  0
  2  3  1  0
  3  4  2  0
  4  5  1  0
  5  6  2  0
  6  7  1  0
  7  8  1  0
  7  9  2  0
  9 10  1  0
 10 11  2  0
 11 12  1  0
 12 13  2  0
 13 14  1  0
 14 15  2  0
 15 16  1  0
 16 17  2  0
 17 18  1  0
 18 19  2  0
 19  1  1  0
 19  5  1  0
 16  6  1  0
 15 10  1  0
M  END
>  <target>  (737) 
-6.59

$$$$

     RDKit          3D

  9  9  0  0  0  0  0  0  0  0999 V2000
    3.3281    0.3606   -0.2861 C   0  0  0  0  0  0  0  0  0  0  0  0
    1.8916    0.0570   -0.6723 C   0  0  0  0  0  0  0  0  0  0  0  0
    1.0718    0.2801    0.4732 O   0  0  0  0  0  0  0  0  0  0  0  0
   -0.2705    0.0596    0.3298 C   0  0  0  0  0  0  0  0  0  0  0  0
   -1.0262    0.2932    1.4821 C   0  0  0  0  0  0  0  0  0  0  0  0
   -2.4096    0.1072    1.4765 C   0  0  0  0  0  0  0  0  0  0  0  0
   -3.0476   -0.3153    0.3131 C   0  0  0  0  0  0  0  0  0  0  0  0
   -2.3011   -0.5504   -0.8403 C   0  0  0  0  0  0  0  0  0  0  0  0
   -0.9149   -0.3637   -0.8335 C   0  0  0  0  0  0  0  0  0  0  0  0
  1  2  1  0
  2  3  1  0
  3  4  1  0
  4  5  2  0
  5  6  1  0
  6  7  2  0
  7  8  1  0
  8  9  2  0
  9  4  1  0
M  END
>  <target>  (738) 
-2.33

$$$$

     RDKit          3D

 13 13  0  0  0  0  0  0  0  0999 V2000
   -4.7468   -0.4289   -0.4192 C   0  0  0  0  0  0  0  0  0  0  0  0
   -4.0747    0.6006    0.4700 C   0  0  0  0  0  0  0  0  0  0  0  0
   -2.7025    0.7668    0.0851 O   0  0  0  0  0  0  0  0  0  0  0  0
   -1.8264   -0.0957    0.6582 C   0  0  0  0  0  0  0  0  0  0  0  0
   -2.0887   -0.9867    1.4483 O   0  0  0  0  0  0  0  0  0  0  0  0
   -0.4772    0.2274    0.1516 C   0  0  0  0  0  0  0  0  0  0  0  0
    0.5797   -0.4931    0.5561 C   0  0  0  0  0  0  0  0  0  0  0  0
    1.9604   -0.2412    0.1222 C   0  0  0  0  0  0  0  0  0  0  0  0
    2.2768    0.1655   -1.1810 C   0  0  0  0  0  0  0  0  0  0  0  0
    3.6070    0.3676   -1.5593 C   0  0  0  0  0  0  0  0  0  0  0  0
    4.6344    0.1553   -0.6427 C   0  0  0  0  0  0  0  0  0  0  0  0
    4.3337   -0.2649    0.6509 C   0  0  0  0  0  0  0  0  0  0  0  0
    3.0041   -0.4676    1.0292 C   0  0  0  0  0  0  0  0  0  0  0  0
  1  2  1  0
  2  3  1  0
  3  4  1  0
  4  5  2  0
  4  6  1  0
  6  7  2  3
  7  8  1  0
  8  9  2  0
  9 10  1  0
 10 11  2  0
 11 12  1  0
 12 13  2  0
 13  8  1  0
M  END
>  <target>  (739) 
-3.0

$$$$

     RDKit          3D

 14 14  0  0  0  0  0  0  0  0999 V2000
    4.0621   -0.1130    0.5709 C   0  0  0  0  0  0  0  0  0  0  0  0
    2.6019   -0.1602    0.2235 C   0  0  0  0  0  0  0  0  0  0  0  0
    1.7488   -0.2719    1.2884 N   0  0  0  0  0  0  0  0  0  0  0  0
    0.3821   -0.2378    1.2156 C   0  0  0  0  0  0  0  0  0  0  0  0
   -0.2442   -0.4675    2.2468 O   0  0  0  0  0  0  0  0  0  0  0  0
   -0.1635    0.0416   -0.0308 N   0  0  0  0  0  0  0  0  0  0  0  0
    0.6003   -0.2670   -1.1575 C   0  0  0  0  0  0  0  0  0  0  0  0
    0.1355   -0.6507   -2.2297 O   0  0  0  0  0  0  0  0  0  0  0  0
    2.0831   -0.1349   -1.0103 C   0  0  0  0  0  0  0  0  0  0  0  0
    3.0216   -0.0424   -2.4506 Cl  0  0  0  0  0  0  0  0  0  0  0  0
   -1.6582    0.1580   -0.1671 C   0  0  0  0  0  0  0  0  0  0  0  0
   -2.3074   -1.2379   -0.1928 C   0  0  0  0  0  0  0  0  0  0  0  0
   -2.2873    0.9810    0.9900 C   0  0  0  0  0  0  0  0  0  0  0  0
   -2.0655    0.9271   -1.4536 C   0  0  0  0  0  0  0  0  0  0  0  0
  1  2  1  0
  2  3  1  0
  3  4  1  0
  4  5  2  0
  4  6  1  0
  6  7  1  0
  7  8  2  0
  7  9  1  0
  9 10  1  0
  6 11  1  0
 11 12  1  0
 11 13  1  0
 11 14  1  0
  9  2  2  0
M  END
>  <target>  (740) 
-2.484

$$$$

     RDKit          3D

 22 24  0  0  0  0  0  0  0  0999 V2000
    0.9522   -0.1963   -2.5309 Cl  0  0  0  0  0  0  0  0  0  0  0  0
    2.0416    0.0290   -1.2093 C   0  0  0  0  0  0  0  0  0  0  0  0
    3.3055    0.5531   -1.5014 C   0  0  0  0  0  0  0  0  0  0  0  0
    4.2525    0.7189   -0.4886 C   0  0  0  0  0  0  0  0  0  0  0  0
    3.9462    0.3515    0.8201 C   0  0  0  0  0  0  0  0  0  0  0  0
    2.6879   -0.1709    1.1202 C   0  0  0  0  0  0  0  0  0  0  0  0
    1.7238   -0.3179    0.1109 C   0  0  0  0  0  0  0  0  0  0  0  0
    0.3944   -0.8655    0.5193 C   0  0  0  0  0  0  0  0  0  0  0  0
    0.4152   -1.9868    1.1542 N   0  0  0  0  0  0  0  0  0  0  0  0
   -0.8345   -2.5852    1.6047 C   0  0  0  0  0  0  0  0  0  0  0  0
   -1.6736   -3.0386    0.4253 C   0  0  0  0  0  0  0  0  0  0  0  0
   -1.9822   -4.2172    0.2436 O   0  0  0  0  0  0  0  0  0  0  0  0
   -2.1992   -2.0763   -0.3957 N   0  0  0  0  0  0  0  0  0  0  0  0
   -1.9901   -0.6916   -0.3317 C   0  0  0  0  0  0  0  0  0  0  0  0
   -3.0186    0.1112   -0.8491 C   0  0  0  0  0  0  0  0  0  0  0  0
   -2.9419    1.5047   -0.7859 C   0  0  0  0  0  0  0  0  0  0  0  0
   -1.8188    2.1049   -0.2103 C   0  0  0  0  0  0  0  0  0  0  0  0
   -0.7632    1.3215    0.2723 C   0  0  0  0  0  0  0  0  0  0  0  0
   -0.8337   -0.0809    0.1855 C   0  0  0  0  0  0  0  0  0  0  0  0
   -1.7344    3.5691   -0.1319 N   0  0  0  0  0  0  0  0  0  0  0  0
   -0.7055    4.0591    0.3535 O   0  0  0  0  0  0  0  0  0  0  0  0
   -2.6973    4.2244   -0.5530 O   0  0  0  0  0  0  0  0  0  0  0  0
  1  2  1  0
  2  3  2  0
  3  4  1  0
  4  5  2  0
  5  6  1  0
  6  7  2  0
  7  8  1  0
  8  9  2  0
  9 10  1  0
 10 11  1  0
 11 12  2  0
 11 13  1  0
 13 14  1  0
 14 15  2  0
 15 16  1  0
 16 17  2  0
 17 18  1  0
 18 19  2  0
 17 20  1  0
 20 21  1  0
 20 22  2  0
  7  2  1  0
 19  8  1  0
 19 14  1  0
M  CHG  2  20   1  21  -1
M  END
>  <target>  (741) 
-3.4989999999999997

$$$$

     RDKit          3D

 11 11  0  0  0  0  0  0  0  0999 V2000
   -3.3697    0.1905   -0.0829 C   0  0  0  0  0  0  0  0  0  0  0  0
   -1.8762    0.0548   -0.1427 C   0  0  0  0  0  0  0  0  0  0  0  0
   -1.1474    0.7000   -1.1514 C   0  0  0  0  0  0  0  0  0  0  0  0
    0.2384    0.5495   -1.2302 C   0  0  0  0  0  0  0  0  0  0  0  0
    0.8979   -0.2523   -0.2959 C   0  0  0  0  0  0  0  0  0  0  0  0
    0.1819   -0.9227    0.6985 C   0  0  0  0  0  0  0  0  0  0  0  0
   -1.2037   -0.7678    0.7716 C   0  0  0  0  0  0  0  0  0  0  0  0
    2.6477   -0.4729   -0.4131 S   0  0  0  0  0  0  0  0  0  0  0  0
    3.0215   -1.6974    0.2558 O   0  0  0  0  0  0  0  0  0  0  0  0
    3.0804   -0.1620   -1.7557 O   0  0  0  0  0  0  0  0  0  0  0  0
    3.2217    0.7732    0.5549 N   0  0  0  0  0  0  0  0  0  0  0  0
  1  2  1  0
  2  3  2  0
  3  4  1  0
  4  5  2  0
  5  6  1  0
  6  7  2  0
  5  8  1  0
  8  9  2  0
  8 10  2  0
  8 11  1  0
  7  2  1  0
M  END
>  <target>  (742) 
-1.74

$$$$

     RDKit          3D

 15 15  0  0  0  0  0  0  0  0999 V2000
   -3.4280   -1.0181    0.9108 C   0  0  0  0  0  0  0  0  0  0  0  0
   -3.0461   -0.2840   -0.3714 C   0  0  0  0  0  0  0  0  0  0  0  0
   -1.8246    0.4426   -0.1654 O   0  0  0  0  0  0  0  0  0  0  0  0
   -0.6823   -0.2742   -0.3202 C   0  0  0  0  0  0  0  0  0  0  0  0
   -0.6513   -1.4612   -0.6031 O   0  0  0  0  0  0  0  0  0  0  0  0
    0.3720    0.5664   -0.1008 N   0  0  0  0  0  0  0  0  0  0  0  0
    1.7466    0.2775   -0.1456 C   0  0  0  0  0  0  0  0  0  0  0  0
    2.2646   -0.9873   -0.4373 C   0  0  0  0  0  0  0  0  0  0  0  0
    3.6470   -1.2004   -0.4637 C   0  0  0  0  0  0  0  0  0  0  0  0
    4.5228   -0.1501   -0.1982 C   0  0  0  0  0  0  0  0  0  0  0  0
    4.0106    1.1107    0.0928 C   0  0  0  0  0  0  0  0  0  0  0  0
    5.0870    2.4131    0.4224 Cl  0  0  0  0  0  0  0  0  0  0  0  0
    2.6321    1.3289    0.1202 C   0  0  0  0  0  0  0  0  0  0  0  0
   -4.0955    0.6892   -0.7296 C   0  0  0  0  0  0  0  0  0  0  0  0
   -4.9487    1.4816   -1.0255 C   0  0  0  0  0  0  0  0  0  0  0  0
  1  2  1  0
  2  3  1  0
  3  4  1  0
  4  5  2  0
  4  6  1  0
  6  7  1  0
  7  8  2  0
  8  9  1  0
  9 10  2  0
 10 11  1  0
 11 12  1  0
 11 13  2  0
  2 14  1  0
 14 15  3  0
 13  7  1  0
M  END
>  <target>  (743) 
-2.617

$$$$

     RDKit          3D

  8  7  0  0  0  0  0  0  0  0999 V2000
    4.0936   -0.1610    0.6749 C   0  0  0  0  0  0  0  0  0  0  0  0
    2.8541    0.3963   -0.0066 C   0  0  0  0  0  0  0  0  0  0  0  0
    1.5919   -0.3452    0.4332 C   0  0  0  0  0  0  0  0  0  0  0  0
    0.3465    0.2182   -0.2556 C   0  0  0  0  0  0  0  0  0  0  0  0
   -0.9171   -0.5235    0.1908 C   0  0  0  0  0  0  0  0  0  0  0  0
   -2.1858   -0.0829   -0.5626 C   0  0  0  0  0  0  0  0  0  0  0  0
   -2.5391    1.3827   -0.3059 C   0  0  0  0  0  0  0  0  0  0  0  0
   -3.3632   -0.9752   -0.1616 C   0  0  0  0  0  0  0  0  0  0  0  0
  1  2  1  0
  2  3  1  0
  3  4  1  0
  4  5  1  0
  5  6  1  0
  6  7  1  0
  6  8  1  0
M  END
>  <target>  (744) 
-5.08

$$$$

     RDKit          3D

 31 33  0  0  0  0  0  0  0  0999 V2000
   -1.9188    0.7911   -1.8202 C   0  0  0  0  0  0  0  0  0  0  0  0
   -2.9506    0.8217   -0.7149 C   0  0  0  0  0  0  0  0  0  0  0  0
   -4.2193    1.5346   -1.1222 C   0  0  0  0  0  0  0  0  0  0  0  0
   -2.5269    0.9363    0.7411 C   0  0  0  0  0  0  0  0  0  0  0  0
   -1.1058    1.0990    1.0840 C   0  0  0  0  0  0  0  0  0  0  0  0
   -0.3701    2.2247    0.9942 C   0  0  0  0  0  0  0  0  0  0  0  0
    1.3077    2.1443    1.4638 Cl  0  0  0  0  0  0  0  0  0  0  0  0
   -0.8194    3.5795    0.5286 C   0  0  0  0  0  0  0  0  0  0  0  0
   -0.2281    3.9424   -0.6388 F   0  0  0  0  0  0  0  0  0  0  0  0
   -0.5311    4.5515    1.4362 F   0  0  0  0  0  0  0  0  0  0  0  0
   -2.1614    3.6595    0.3179 F   0  0  0  0  0  0  0  0  0  0  0  0
   -3.0977   -0.3701    0.2229 C   0  0  0  0  0  0  0  0  0  0  0  0
   -2.2912   -1.6045    0.0910 C   0  0  0  0  0  0  0  0  0  0  0  0
   -1.9721   -2.0761   -0.9888 O   0  0  0  0  0  0  0  0  0  0  0  0
   -2.0049   -2.1342    1.3056 O   0  0  0  0  0  0  0  0  0  0  0  0
   -1.1364   -3.2854    1.2772 C   0  0  0  0  0  0  0  0  0  0  0  0
   -1.5324   -4.2253    2.3498 C   0  0  0  0  0  0  0  0  0  0  0  0
   -1.8571   -4.9582    3.1917 N   0  0  0  0  0  0  0  0  0  0  0  0
    0.2847   -2.7627    1.4237 C   0  0  0  0  0  0  0  0  0  0  0  0
    0.8008   -2.3422    2.6638 C   0  0  0  0  0  0  0  0  0  0  0  0
    2.0750   -1.7750    2.7527 C   0  0  0  0  0  0  0  0  0  0  0  0
    2.8403   -1.5927    1.6036 C   0  0  0  0  0  0  0  0  0  0  0  0
    2.3253   -1.9793    0.3681 C   0  0  0  0  0  0  0  0  0  0  0  0
    3.0471   -1.7876   -0.7857 O   0  0  0  0  0  0  0  0  0  0  0  0
    3.1801   -0.4794   -1.2043 C   0  0  0  0  0  0  0  0  0  0  0  0
    2.1450    0.4590   -1.1323 C   0  0  0  0  0  0  0  0  0  0  0  0
    2.3507    1.7618   -1.5864 C   0  0  0  0  0  0  0  0  0  0  0  0
    3.5843    2.1187   -2.1355 C   0  0  0  0  0  0  0  0  0  0  0  0
    4.6090    1.1754   -2.2337 C   0  0  0  0  0  0  0  0  0  0  0  0
    4.4050   -0.1256   -1.7718 C   0  0  0  0  0  0  0  0  0  0  0  0
    1.0737   -2.5870    0.2748 C   0  0  0  0  0  0  0  0  0  0  0  0
  1  2  1  0
  2  3  1  0
  2  4  1  0
  4  5  1  0
  5  6  2  3
  6  7  1  0
  6  8  1  0
  8  9  1  0
  8 10  1  0
  8 11  1  0
  4 12  1  0
 12 13  1  0
 13 14  2  0
 13 15  1  0
 15 16  1  0
 16 17  1  0
 17 18  3  0
 16 19  1  0
 19 20  2  0
 20 21  1  0
 21 22  2  0
 22 23  1  0
 23 24  1  0
 24 25  1  0
 25 26  2  0
 26 27  1  0
 27 28  2  0
 28 29  1  0
 29 30  2  0
 23 31  2  0
 12  2  1  0
 31 19  1  0
 30 25  1  0
M  END
>  <target>  (745) 
-8.176

$$$$

     RDKit          3D

 22 24  0  0  0  0  0  0  0  0999 V2000
    5.5009   -0.3260   -0.9715 C   0  0  0  0  0  0  0  0  0  0  0  0
    4.4083   -0.1363    0.0695 C   0  0  0  0  0  0  0  0  0  0  0  0
    3.0986   -0.7977   -0.3682 C   0  0  0  0  0  0  0  0  0  0  0  0
    1.9922   -0.6429    0.6772 C   0  0  0  0  0  0  0  0  0  0  0  0
    0.9117   -1.6801    0.4764 C   0  0  0  0  0  0  0  0  0  0  0  0
    1.1193   -2.8853    0.4858 O   0  0  0  0  0  0  0  0  0  0  0  0
   -0.2974   -0.9831    0.3244 N   0  0  0  0  0  0  0  0  0  0  0  0
   -0.0623    0.3994    0.3530 N   0  0  0  0  0  0  0  0  0  0  0  0
    1.2780    0.6822    0.5657 C   0  0  0  0  0  0  0  0  0  0  0  0
    1.8323    1.7676    0.6562 O   0  0  0  0  0  0  0  0  0  0  0  0
   -1.1196    1.2987    0.1361 C   0  0  0  0  0  0  0  0  0  0  0  0
   -0.9711    2.6911    0.1640 C   0  0  0  0  0  0  0  0  0  0  0  0
   -2.0720    3.5326   -0.0573 C   0  0  0  0  0  0  0  0  0  0  0  0
   -1.8967    5.0232   -0.0575 C   0  0  0  0  0  0  0  0  0  0  0  0
   -3.3192    2.9657   -0.3335 C   0  0  0  0  0  0  0  0  0  0  0  0
   -3.4678    1.5787   -0.3635 C   0  0  0  0  0  0  0  0  0  0  0  0
   -2.3763    0.7395   -0.1288 C   0  0  0  0  0  0  0  0  0  0  0  0
   -2.5857   -0.6466   -0.1779 N   0  0  0  0  0  0  0  0  0  0  0  0
   -1.5906   -1.4616    0.0501 C   0  0  0  0  0  0  0  0  0  0  0  0
   -1.8161   -2.8303    0.0040 N   0  0  0  0  0  0  0  0  0  0  0  0
   -1.7016   -3.5927    1.2486 C   0  0  0  0  0  0  0  0  0  0  0  0
   -2.8981   -3.3165   -0.8534 C   0  0  0  0  0  0  0  0  0  0  0  0
  1  2  1  0
  2  3  1  0
  3  4  1  0
  4  5  1  0
  5  6  2  0
  5  7  1  0
  7  8  1  0
  8  9  1  0
  9 10  2  0
  8 11  1  0
 11 12  2  0
 12 13  1  0
 13 14  1  0
 13 15  2  0
 15 16  1  0
 16 17  2  0
 17 18  1  0
 18 19  2  0
 19 20  1  0
 20 21  1  0
 20 22  1  0
  9  4  1  0
 17 11  1  0
 19  7  1  0
M  END
>  <target>  (746) 
-3.5380000000000003

$$$$

     RDKit          3D

 20 22  0  0  0  0  0  0  0  0999 V2000
    3.1999   -0.4099   -1.9362 C   0  0  0  0  0  0  0  0  0  0  0  0
    2.2256   -0.7695   -0.9144 N   0  0  0  0  0  0  0  0  0  0  0  0
    1.9013   -2.1281   -0.8101 C   0  0  0  0  0  0  0  0  0  0  0  0
    2.3461   -2.9737   -1.5922 O   0  0  0  0  0  0  0  0  0  0  0  0
    1.0376   -2.5493    0.3709 C   0  0  0  0  0  0  0  0  0  0  0  0
   -0.3217   -2.0573    0.1739 N   0  0  0  0  0  0  0  0  0  0  0  0
   -0.5258   -0.7873    0.2755 C   0  0  0  0  0  0  0  0  0  0  0  0
   -1.9151   -0.2926    0.0095 C   0  0  0  0  0  0  0  0  0  0  0  0
   -2.1411    0.9345   -0.6274 C   0  0  0  0  0  0  0  0  0  0  0  0
   -3.4476    1.3685   -0.8621 C   0  0  0  0  0  0  0  0  0  0  0  0
   -4.5282    0.5768   -0.4733 C   0  0  0  0  0  0  0  0  0  0  0  0
   -4.3071   -0.6543    0.1431 C   0  0  0  0  0  0  0  0  0  0  0  0
   -3.0032   -1.0921    0.3799 C   0  0  0  0  0  0  0  0  0  0  0  0
    0.5300    0.2008    0.6447 C   0  0  0  0  0  0  0  0  0  0  0  0
    0.1917    1.1628    1.6151 C   0  0  0  0  0  0  0  0  0  0  0  0
    1.0816    2.1836    1.9266 C   0  0  0  0  0  0  0  0  0  0  0  0
    0.6561    3.3646    3.1005 Cl  0  0  0  0  0  0  0  0  0  0  0  0
    2.3090    2.2586    1.2826 C   0  0  0  0  0  0  0  0  0  0  0  0
    2.6588    1.2891    0.3366 C   0  0  0  0  0  0  0  0  0  0  0  0
    1.7924    0.2254    0.0178 C   0  0  0  0  0  0  0  0  0  0  0  0
  1  2  1  0
  2  3  1  0
  3  4  2  0
  3  5  1  0
  5  6  1  0
  6  7  2  0
  7  8  1  0
  8  9  2  0
  9 10  1  0
 10 11  2  0
 11 12  1  0
 12 13  2  0
  7 14  1  0
 14 15  2  0
 15 16  1  0
 16 17  1  0
 16 18  2  0
 18 19  1  0
 19 20  2  0
 13  8  1  0
 20  2  1  0
 20 14  1  0
M  END
>  <target>  (747) 
-3.7539999999999996

$$$$

     RDKit          3D

  7  6  0  0  0  0  0  0  0  0999 V2000
    2.7860    0.4263   -0.1113 C   0  0  0  0  0  0  0  0  0  0  0  0
    1.3542    0.7017   -0.5545 C   0  0  0  0  0  0  0  0  0  0  0  0
    0.4034   -0.4415   -0.1738 C   0  0  0  0  0  0  0  0  0  0  0  0
    0.3363   -0.5590    1.2464 O   0  0  0  0  0  0  0  0  0  0  0  0
   -1.0126   -0.2820   -0.7741 C   0  0  0  0  0  0  0  0  0  0  0  0
   -1.8707   -1.5134   -0.4623 C   0  0  0  0  0  0  0  0  0  0  0  0
   -1.7454    0.9750   -0.2959 C   0  0  0  0  0  0  0  0  0  0  0  0
  1  2  1  0
  2  3  1  0
  3  4  1  0
  3  5  1  0
  5  6  1  0
  5  7  1  0
M  END
>  <target>  (748) 
-0.7

$$$$

     RDKit          3D

 18 18  0  0  0  0  0  0  0  0999 V2000
   -3.1069    3.0840    0.9524 C   0  0  0  0  0  0  0  0  0  0  0  0
   -3.0040    1.5994    1.2367 C   0  0  0  0  0  0  0  0  0  0  0  0
   -1.8643    1.0911    0.5647 O   0  0  0  0  0  0  0  0  0  0  0  0
   -1.6349   -0.5128    0.5375 P   0  0  0  0  0  0  0  0  0  0  0  0
   -1.3873   -1.3873    2.2534 S   0  0  0  0  0  0  0  0  0  0  0  0
   -2.9299   -0.9877   -0.3150 O   0  0  0  0  0  0  0  0  0  0  0  0
   -2.9983   -2.3387   -0.7402 C   0  0  0  0  0  0  0  0  0  0  0  0
   -4.1246   -2.4706   -1.7448 C   0  0  0  0  0  0  0  0  0  0  0  0
   -0.4606   -0.6717   -0.5602 O   0  0  0  0  0  0  0  0  0  0  0  0
    0.8241   -0.2244   -0.4418 C   0  0  0  0  0  0  0  0  0  0  0  0
    1.2776    0.6244    0.5645 C   0  0  0  0  0  0  0  0  0  0  0  0
    2.6194    1.0211    0.5921 C   0  0  0  0  0  0  0  0  0  0  0  0
    3.5127    0.5709   -0.3858 C   0  0  0  0  0  0  0  0  0  0  0  0
    3.0478   -0.2660   -1.4030 C   0  0  0  0  0  0  0  0  0  0  0  0
    1.7086   -0.6617   -1.4288 C   0  0  0  0  0  0  0  0  0  0  0  0
    5.2412    1.0958   -0.3293 S   0  0  0  0  0  0  0  0  0  0  0  0
    5.7693   -0.0209    0.9960 C   0  0  0  0  0  0  0  0  0  0  0  0
    5.8650    0.6012   -1.6018 O   0  0  0  0  0  0  0  0  0  0  0  0
  1  2  1  0
  2  3  1  0
  3  4  1  0
  4  5  2  0
  4  6  1  0
  6  7  1  0
  7  8  1  0
  4  9  1  0
  9 10  1  0
 10 11  2  0
 11 12  1  0
 12 13  2  0
 13 14  1  0
 14 15  2  0
 13 16  1  0
 16 17  1  0
 16 18  2  0
 15 10  1  0
M  END
>  <target>  (749) 
-2.3

$$$$

     RDKit          3D

 11 12  0  0  0  0  0  0  0  0999 V2000
   -0.4926   -2.1250   -0.1753 C   0  0  0  0  0  0  0  0  0  0  0  0
   -0.7005   -0.5976   -0.2052 C   0  0  0  0  0  0  0  0  0  0  0  0
   -2.1996   -0.3653    0.0725 C   0  0  0  0  0  0  0  0  0  0  0  0
   -0.1838    0.0871   -1.4989 C   0  0  0  0  0  0  0  0  0  0  0  0
   -0.3805    1.5928   -1.2132 C   0  0  0  0  0  0  0  0  0  0  0  0
   -0.0719    1.6998    0.2899 C   0  0  0  0  0  0  0  0  0  0  0  0
    0.2818    0.2350    0.6737 C   0  0  0  0  0  0  0  0  0  0  0  0
    0.2332   -0.0035    2.1714 C   0  0  0  0  0  0  0  0  0  0  0  0
    1.6647   -0.1031    0.0389 C   0  0  0  0  0  0  0  0  0  0  0  0
    2.6577    0.8741    0.2985 O   0  0  0  0  0  0  0  0  0  0  0  0
    1.3429   -0.1661   -1.4658 C   0  0  0  0  0  0  0  0  0  0  0  0
  1  2  1  0
  2  3  1  0
  2  4  1  0
  4  5  1  0
  5  6  1  0
  6  7  1  0
  7  8  1  0
  7  9  1  0
  9 10  1  0
  9 11  1  0
  7  2  1  0
 11  4  1  0
M  END
>  <target>  (750) 
-2.32

$$$$

     RDKit          3D

 21 24  0  0  0  0  0  0  0  0999 V2000
   -3.3911    0.4828    1.9400 C   0  0  0  0  0  0  0  0  0  0  0  0
   -2.4395    0.5027    0.7144 C   0  0  0  0  0  0  0  0  0  0  0  0
   -1.5074    1.7130    0.8847 C   0  0  0  0  0  0  0  0  0  0  0  0
   -0.2433    1.7022    0.0350 C   0  0  0  0  0  0  0  0  0  0  0  0
    0.5381    0.3859    0.1785 C   0  0  0  0  0  0  0  0  0  0  0  0
   -0.3666   -0.8124   -0.2098 C   0  0  0  0  0  0  0  0  0  0  0  0
    0.4106   -2.1291   -0.0072 C   0  0  0  0  0  0  0  0  0  0  0  0
    1.6924   -2.1579   -0.8255 C   0  0  0  0  0  0  0  0  0  0  0  0
    2.5764   -0.9785   -0.5097 C   0  0  0  0  0  0  0  0  0  0  0  0
    3.8704   -1.1791   -0.2039 C   0  0  0  0  0  0  0  0  0  0  0  0
    4.8063   -0.0504   -0.0050 C   0  0  0  0  0  0  0  0  0  0  0  0
    5.9703   -0.2798    0.3127 O   0  0  0  0  0  0  0  0  0  0  0  0
    4.3079    1.3405   -0.2891 C   0  0  0  0  0  0  0  0  0  0  0  0
    2.8400    1.4650    0.0913 C   0  0  0  0  0  0  0  0  0  0  0  0
    1.9206    0.4047   -0.5876 C   0  0  0  0  0  0  0  0  0  0  0  0
    1.7542    0.7711   -2.0806 C   0  0  0  0  0  0  0  0  0  0  0  0
   -1.6854   -0.8454    0.6116 C   0  0  0  0  0  0  0  0  0  0  0  0
   -2.7243   -1.7965   -0.0243 C   0  0  0  0  0  0  0  0  0  0  0  0
   -3.7566   -0.9255   -0.7500 C   0  0  0  0  0  0  0  0  0  0  0  0
   -3.2950    0.5202   -0.5729 C   0  0  0  0  0  0  0  0  0  0  0  0
   -2.5446    0.9001   -1.7186 O   0  0  0  0  0  0  0  0  0  0  0  0
  1  2  1  0
  2  3  1  0
  3  4  1  0
  4  5  1  0
  5  6  1  0
  6  7  1  0
  7  8  1  0
  8  9  1  0
  9 10  2  0
 10 11  1  0
 11 12  2  0
 11 13  1  0
 13 14  1  0
 14 15  1  0
 15 16  1  0
  6 17  1  0
 17 18  1  0
 18 19  1  0
 19 20  1  0
 20 21  1  0
 20  2  1  0
 17  2  1  0
 15  5  1  0
 15  9  1  0
M  END
>  <target>  (751) 
-4.02

$$$$

     RDKit          3D

  7  6  0  0  0  0  0  0  0  0999 V2000
    3.6714    0.0540    0.1089 C   0  0  0  0  0  0  0  0  0  0  0  0
    2.2837   -0.5209    0.3439 C   0  0  0  0  0  0  0  0  0  0  0  0
    1.2088    0.3027   -0.3652 C   0  0  0  0  0  0  0  0  0  0  0  0
   -0.1863   -0.2794   -0.1267 C   0  0  0  0  0  0  0  0  0  0  0  0
   -1.2606    0.5489   -0.8351 C   0  0  0  0  0  0  0  0  0  0  0  0
   -2.6640   -0.0494   -0.7164 C   0  0  0  0  0  0  0  0  0  0  0  0
   -3.2014   -0.0603    0.7063 C   0  0  0  0  0  0  0  0  0  0  0  0
  1  2  1  0
  2  3  1  0
  3  4  1  0
  4  5  1  0
  5  6  1  0
  6  7  1  0
M  END
>  <target>  (752) 
-4.53

$$$$

     RDKit          3D

 11 12  0  0  0  0  0  0  0  0999 V2000
    1.5902    2.3389   -0.0140 O   0  0  0  0  0  0  0  0  0  0  0  0
    1.2885    1.0197    0.2106 C   0  0  0  0  0  0  0  0  0  0  0  0
    2.2529    0.1831    0.7737 C   0  0  0  0  0  0  0  0  0  0  0  0
    1.9513   -1.1563    1.0035 C   0  0  0  0  0  0  0  0  0  0  0  0
    0.6910   -1.6558    0.6712 C   0  0  0  0  0  0  0  0  0  0  0  0
   -0.2884   -0.8237    0.1038 C   0  0  0  0  0  0  0  0  0  0  0  0
   -1.5578   -1.3246   -0.2313 C   0  0  0  0  0  0  0  0  0  0  0  0
   -2.5290   -0.4959   -0.7950 C   0  0  0  0  0  0  0  0  0  0  0  0
   -2.2449    0.8446   -1.0313 C   0  0  0  0  0  0  0  0  0  0  0  0
   -0.9886    1.3572   -0.7039 C   0  0  0  0  0  0  0  0  0  0  0  0
    0.0083    0.5392   -0.1337 C   0  0  0  0  0  0  0  0  0  0  0  0
  1  2  1  0
  2  3  2  0
  3  4  1  0
  4  5  2  0
  5  6  1  0
  6  7  2  0
  7  8  1  0
  8  9  2  0
  9 10  1  0
 10 11  2  0
 11  2  1  0
 11  6  1  0
M  END
>  <target>  (753) 
-2.22

$$$$

     RDKit          3D

  8  8  0  0  0  0  0  0  0  0999 V2000
   -0.6614    2.2442    0.1575 C   0  0  0  0  0  0  0  0  0  0  0  0
   -0.0761    0.9014   -0.2889 C   0  0  0  0  0  0  0  0  0  0  0  0
    1.4105    0.8389    0.1028 C   0  0  0  0  0  0  0  0  0  0  0  0
    2.0541   -0.4831   -0.3015 C   0  0  0  0  0  0  0  0  0  0  0  0
    1.2950   -1.6704    0.2757 C   0  0  0  0  0  0  0  0  0  0  0  0
   -0.1792   -1.6306   -0.1123 C   0  0  0  0  0  0  0  0  0  0  0  0
   -0.8485   -0.3069    0.2961 C   0  0  0  0  0  0  0  0  0  0  0  0
   -2.3179   -0.3285   -0.1345 C   0  0  0  0  0  0  0  0  0  0  0  0
  1  2  1  0
  2  3  1  0
  3  4  1  0
  4  5  1  0
  5  6  1  0
  6  7  1  0
  7  8  1  0
  7  2  1  0
M  END
>  <target>  (754) 
-4.3

$$$$

     RDKit          3D

 31 33  0  0  0  0  0  0  0  0999 V2000
    6.3496    1.3230   -2.1198 C   0  0  0  0  0  0  0  0  0  0  0  0
    5.5380    2.1519   -1.2874 O   0  0  0  0  0  0  0  0  0  0  0  0
    4.4012    1.5339   -0.8441 C   0  0  0  0  0  0  0  0  0  0  0  0
    4.1441    1.6511    0.5170 C   0  0  0  0  0  0  0  0  0  0  0  0
    3.0090    1.0401    1.0978 C   0  0  0  0  0  0  0  0  0  0  0  0
    2.6924    1.1142    2.4557 C   0  0  0  0  0  0  0  0  0  0  0  0
    3.4791    1.8407    3.3599 N   0  0  0  0  0  0  0  0  0  0  0  0
    1.6325    0.5097    3.0005 N   0  0  0  0  0  0  0  0  0  0  0  0
    0.8626   -0.2279    2.1959 C   0  0  0  0  0  0  0  0  0  0  0  0
    1.0864   -0.3453    0.8813 N   0  0  0  0  0  0  0  0  0  0  0  0
    2.1206    0.3000    0.3146 C   0  0  0  0  0  0  0  0  0  0  0  0
    2.3450    0.2639   -1.0752 C   0  0  0  0  0  0  0  0  0  0  0  0
    1.5091   -0.3919   -1.9599 O   0  0  0  0  0  0  0  0  0  0  0  0
    0.1221   -0.0875   -1.7973 C   0  0  0  0  0  0  0  0  0  0  0  0
    3.4765    0.8741   -1.6507 C   0  0  0  0  0  0  0  0  0  0  0  0
    3.6675    0.7912   -3.0091 O   0  0  0  0  0  0  0  0  0  0  0  0
    3.0987    1.9320   -3.6529 C   0  0  0  0  0  0  0  0  0  0  0  0
   -0.2649   -0.8445    2.7631 N   0  0  0  0  0  0  0  0  0  0  0  0
   -0.8272   -1.9062    1.8963 C   0  0  0  0  0  0  0  0  0  0  0  0
   -2.1175   -2.4784    2.5186 C   0  0  0  0  0  0  0  0  0  0  0  0
   -3.0625   -1.3828    2.7530 N   0  0  0  0  0  0  0  0  0  0  0  0
   -2.5346   -0.3914    3.6881 C   0  0  0  0  0  0  0  0  0  0  0  0
   -1.2232    0.2182    3.1513 C   0  0  0  0  0  0  0  0  0  0  0  0
   -3.7992   -0.8991    1.6784 C   0  0  0  0  0  0  0  0  0  0  0  0
   -4.1334    0.2738    1.5474 O   0  0  0  0  0  0  0  0  0  0  0  0
   -4.0774   -1.8671    0.7634 O   0  0  0  0  0  0  0  0  0  0  0  0
   -4.7010   -1.4189   -0.4532 C   0  0  0  0  0  0  0  0  0  0  0  0
   -3.6338   -1.1070   -1.5286 C   0  0  0  0  0  0  0  0  0  0  0  0
   -2.8409   -2.3655   -1.8888 C   0  0  0  0  0  0  0  0  0  0  0  0
   -4.3024   -0.5289   -2.7761 C   0  0  0  0  0  0  0  0  0  0  0  0
   -2.6854   -0.1395   -1.0557 O   0  0  0  0  0  0  0  0  0  0  0  0
  1  2  1  0
  2  3  1  0
  3  4  2  0
  4  5  1  0
  5  6  2  0
  6  7  1  0
  6  8  1  0
  8  9  2  0
  9 10  1  0
 10 11  2  0
 11 12  1  0
 12 13  1  0
 13 14  1  0
 12 15  2  0
 15 16  1  0
 16 17  1  0
  9 18  1  0
 18 19  1  0
 19 20  1  0
 20 21  1  0
 21 22  1  0
 22 23  1  0
 21 24  1  0
 24 25  2  0
 24 26  1  0
 26 27  1  0
 27 28  1  0
 28 29  1  0
 28 30  1  0
 28 31  1  0
 11  5  1  0
 15  3  1  0
 23 18  1  0
M  END
>  <target>  (755) 
-3.638

$$$$

     RDKit          3D

 20 24  0  0  0  0  0  0  0  0999 V2000
   -3.6915   -1.3030    0.3190 C   0  0  0  0  0  0  0  0  0  0  0  0
   -2.3088   -1.9906    0.4564 C   0  0  0  0  0  0  0  0  0  0  0  0
   -1.3203   -0.8813    0.2048 C   0  0  0  0  0  0  0  0  0  0  0  0
   -1.9801    0.2929   -0.0456 C   0  0  0  0  0  0  0  0  0  0  0  0
   -3.3397    0.1185    0.0052 C   0  0  0  0  0  0  0  0  0  0  0  0
   -4.1746    1.1995   -0.2233 C   0  0  0  0  0  0  0  0  0  0  0  0
   -3.5975    2.4479   -0.5014 C   0  0  0  0  0  0  0  0  0  0  0  0
   -2.1988    2.6051   -0.5487 C   0  0  0  0  0  0  0  0  0  0  0  0
   -1.3546    1.5024   -0.3157 C   0  0  0  0  0  0  0  0  0  0  0  0
    0.0539    1.4832   -0.3246 C   0  0  0  0  0  0  0  0  0  0  0  0
    0.8076    0.2928   -0.0715 C   0  0  0  0  0  0  0  0  0  0  0  0
    0.0792   -0.9088    0.1978 C   0  0  0  0  0  0  0  0  0  0  0  0
    0.7691   -2.0995    0.4516 C   0  0  0  0  0  0  0  0  0  0  0  0
    2.1600   -2.1346    0.4463 C   0  0  0  0  0  0  0  0  0  0  0  0
    2.9060   -0.9828    0.1877 C   0  0  0  0  0  0  0  0  0  0  0  0
    4.3094   -1.0590    0.1913 C   0  0  0  0  0  0  0  0  0  0  0  0
    5.0920    0.0639   -0.0613 C   0  0  0  0  0  0  0  0  0  0  0  0
    4.4777    1.2785   -0.3210 C   0  0  0  0  0  0  0  0  0  0  0  0
    3.0820    1.3669   -0.3273 C   0  0  0  0  0  0  0  0  0  0  0  0
    2.2481    0.2471   -0.0749 C   0  0  0  0  0  0  0  0  0  0  0  0
  1  2  1  0
  2  3  1  0
  3  4  2  0
  4  5  1  0
  5  6  2  0
  6  7  1  0
  7  8  2  0
  8  9  1  0
  9 10  2  0
 10 11  1  0
 11 12  2  0
 12 13  1  0
 13 14  2  0
 14 15  1  0
 15 16  2  0
 16 17  1  0
 17 18  2  0
 18 19  1  0
 19 20  2  0
  5  1  1  0
 12  3  1  0
  9  4  1  0
 20 11  1  0
 20 15  1  0
M  END
>  <target>  (756) 
-7.85

$$$$

     RDKit          3D

 25 28  0  0  0  0  0  0  0  0999 V2000
    5.0661   -1.3448    1.4518 C   0  0  0  0  0  0  0  0  0  0  0  0
    4.3222   -0.9160    0.2092 C   0  0  0  0  0  0  0  0  0  0  0  0
    4.5761   -1.4574   -0.8689 O   0  0  0  0  0  0  0  0  0  0  0  0
    3.3153    0.2495    0.3178 C   0  0  0  0  0  0  0  0  0  0  0  0
    4.1454    1.5338    0.1015 C   0  0  0  0  0  0  0  0  0  0  0  0
    2.6311    0.3161    1.7019 C   0  0  0  0  0  0  0  0  0  0  0  0
    1.2628    0.9697    1.4960 C   0  0  0  0  0  0  0  0  0  0  0  0
    1.0647    1.1114   -0.0214 C   0  0  0  0  0  0  0  0  0  0  0  0
   -0.3873    0.9502   -0.5241 C   0  0  0  0  0  0  0  0  0  0  0  0
   -1.3327    1.9223    0.1281 C   0  0  0  0  0  0  0  0  0  0  0  0
   -2.6129    1.6541    0.4460 C   0  0  0  0  0  0  0  0  0  0  0  0
   -3.4469    2.7311    1.0984 C   0  0  0  0  0  0  0  0  0  0  0  0
   -3.2272    0.3514    0.1313 C   0  0  0  0  0  0  0  0  0  0  0  0
   -4.4418    0.0180    0.6109 C   0  0  0  0  0  0  0  0  0  0  0  0
   -5.1076   -1.2669    0.2941 C   0  0  0  0  0  0  0  0  0  0  0  0
   -6.2393   -1.4786    0.7251 O   0  0  0  0  0  0  0  0  0  0  0  0
   -4.3983   -2.2506   -0.5952 C   0  0  0  0  0  0  0  0  0  0  0  0
   -2.8885   -2.0729   -0.5195 C   0  0  0  0  0  0  0  0  0  0  0  0
   -2.4181   -0.6114   -0.7686 C   0  0  0  0  0  0  0  0  0  0  0  0
   -2.6819   -0.2454   -2.2492 C   0  0  0  0  0  0  0  0  0  0  0  0
   -0.8958   -0.5005   -0.3966 C   0  0  0  0  0  0  0  0  0  0  0  0
    0.0488   -1.4256   -1.1807 C   0  0  0  0  0  0  0  0  0  0  0  0
    1.4874   -1.3255   -0.6585 C   0  0  0  0  0  0  0  0  0  0  0  0
    2.0783    0.1162   -0.6553 C   0  0  0  0  0  0  0  0  0  0  0  0
    2.3970    0.5315   -2.1063 C   0  0  0  0  0  0  0  0  0  0  0  0
  1  2  1  0
  2  3  2  0
  2  4  1  0
  4  5  1  0
  4  6  1  0
  6  7  1  0
  7  8  1  0
  8  9  1  0
  9 10  1  0
 10 11  2  0
 11 12  1  0
 11 13  1  0
 13 14  2  0
 14 15  1  0
 15 16  2  0
 15 17  1  0
 17 18  1  0
 18 19  1  0
 19 20  1  0
 19 21  1  0
 21 22  1  0
 22 23  1  0
 23 24  1  0
 24 25  1  0
 19 13  1  0
 21  9  1  0
 24  4  1  0
 24  8  1  0
M  END
>  <target>  (757) 
-5.27

$$$$

     RDKit          3D

  8  7  0  0  0  0  0  0  0  0999 V2000
    3.0625   -0.2491   -0.7564 C   0  0  0  0  0  0  0  0  0  0  0  0
    2.5701    0.9296    0.0690 C   0  0  0  0  0  0  0  0  0  0  0  0
    1.2232    0.6784    0.7503 C   0  0  0  0  0  0  0  0  0  0  0  0
    0.0660    0.5132   -0.2366 C   0  0  0  0  0  0  0  0  0  0  0  0
   -1.2683    0.3723    0.4941 C   0  0  0  0  0  0  0  0  0  0  0  0
   -2.4388    0.2029   -0.4584 C   0  0  0  0  0  0  0  0  0  0  0  0
   -2.3081    0.1892   -1.6814 O   0  0  0  0  0  0  0  0  0  0  0  0
   -3.7956    0.0502    0.1790 C   0  0  0  0  0  0  0  0  0  0  0  0
  1  2  1  0
  2  3  1  0
  3  4  1  0
  4  5  1  0
  5  6  1  0
  6  7  2  0
  6  8  1  0
M  END
>  <target>  (758) 
-1.45

$$$$

     RDKit          3D

 10  9  0  0  0  0  0  0  0  0999 V2000
    1.2210    2.4790   -0.8348 C   0  0  0  0  0  0  0  0  0  0  0  0
    1.4604    1.1412   -0.4399 O   0  0  0  0  0  0  0  0  0  0  0  0
    0.2759    0.0718   -0.7085 P   0  0  0  0  0  0  0  0  0  0  0  0
   -0.4629    0.3730   -1.9777 O   0  0  0  0  0  0  0  0  0  0  0  0
   -0.6657    0.2311    0.6611 N   0  0  0  0  0  0  0  0  0  0  0  0
   -1.9455   -0.1657    0.8421 C   0  0  0  0  0  0  0  0  0  0  0  0
   -2.6501   -0.8760   -0.2786 C   0  0  0  0  0  0  0  0  0  0  0  0
   -2.5018    0.0734    1.9130 O   0  0  0  0  0  0  0  0  0  0  0  0
    1.1189   -1.8305   -0.7550 S   0  0  0  0  0  0  0  0  0  0  0  0
    2.1888   -1.8777    0.6906 C   0  0  0  0  0  0  0  0  0  0  0  0
  1  2  1  0
  2  3  1  0
  3  4  2  0
  3  5  1  0
  5  6  1  0
  6  7  1  0
  6  8  2  0
  3  9  1  0
  9 10  1  0
M  END
>  <target>  (759) 
0.54

$$$$

     RDKit          3D

 17 16  0  0  0  0  0  0  0  0999 V2000
   -2.3408    5.9728    0.1438 C   0  0  0  0  0  0  0  0  0  0  0  0
   -1.7950    4.7163    0.8035 C   0  0  0  0  0  0  0  0  0  0  0  0
   -1.3359    3.6914   -0.2355 C   0  0  0  0  0  0  0  0  0  0  0  0
   -0.7909    2.4363    0.4412 C   0  0  0  0  0  0  0  0  0  0  0  0
   -0.2531    1.2353   -0.8042 S   0  0  0  0  0  0  0  0  0  0  0  0
    0.4573   -0.3984    0.2977 P   0  0  0  0  0  0  0  0  0  0  0  0
    0.9193   -1.4677   -0.6549 O   0  0  0  0  0  0  0  0  0  0  0  0
   -1.0787   -1.1665    1.4928 S   0  0  0  0  0  0  0  0  0  0  0  0
   -2.1298   -2.0467    0.3043 C   0  0  0  0  0  0  0  0  0  0  0  0
   -3.3536   -2.6265    1.0093 C   0  0  0  0  0  0  0  0  0  0  0  0
   -4.3365   -3.2951    0.0435 C   0  0  0  0  0  0  0  0  0  0  0  0
   -3.7716   -4.5315   -0.6387 C   0  0  0  0  0  0  0  0  0  0  0  0
    2.0574    0.2048    1.5034 S   0  0  0  0  0  0  0  0  0  0  0  0
    3.4539    0.3450    0.3562 C   0  0  0  0  0  0  0  0  0  0  0  0
    4.2089   -0.9775    0.2502 C   0  0  0  0  0  0  0  0  0  0  0  0
    5.3868   -0.8568   -0.7188 C   0  0  0  0  0  0  0  0  0  0  0  0
    6.1506   -2.1664   -0.8336 C   0  0  0  0  0  0  0  0  0  0  0  0
  1  2  1  0
  2  3  1  0
  3  4  1  0
  4  5  1  0
  5  6  1  0
  6  7  2  0
  6  8  1  0
  8  9  1  0
  9 10  1  0
 10 11  1  0
 11 12  1  0
  6 13  1  0
 13 14  1  0
 14 15  1  0
 15 16  1  0
 16 17  1  0
M  END
>  <target>  (760) 
-5.14

$$$$

     RDKit          3D

 11 12  0  0  0  0  0  0  0  0999 V2000
   -1.2985    1.6876   -0.0394 C   0  0  0  0  0  0  0  0  0  0  0  0
    0.0029    1.6684   -0.3591 C   0  0  0  0  0  0  0  0  0  0  0  0
    0.7489    0.3939   -0.6566 C   0  0  0  0  0  0  0  0  0  0  0  0
    1.8518    0.1865    0.3621 C   0  0  0  0  0  0  0  0  0  0  0  0
    2.7420    0.9792    0.6308 O   0  0  0  0  0  0  0  0  0  0  0  0
    1.7103   -1.0327    0.9369 N   0  0  0  0  0  0  0  0  0  0  0  0
    0.6292   -1.7193    0.4934 C   0  0  0  0  0  0  0  0  0  0  0  0
    0.3006   -2.8262    0.8930 O   0  0  0  0  0  0  0  0  0  0  0  0
   -0.0842   -0.9047   -0.5671 C   0  0  0  0  0  0  0  0  0  0  0  0
   -1.5326   -0.7251   -0.1942 C   0  0  0  0  0  0  0  0  0  0  0  0
   -2.0751    0.4771    0.0440 C   0  0  0  0  0  0  0  0  0  0  0  0
  1  2  2  0
  2  3  1  0
  3  4  1  0
  4  5  2  0
  4  6  1  0
  6  7  1  0
  7  8  2  0
  7  9  1  0
  9 10  1  0
 10 11  2  0
 11  1  1  0
  9  3  1  0
M  END
>  <target>  (761) 
-2.932

$$$$

     RDKit          3D

 20 21  0  0  0  0  0  0  0  0999 V2000
   -4.7076    0.1689    0.6548 N   0  0  0  0  0  0  0  0  0  0  0  0
   -3.8257   -1.1295    0.0619 S   0  0  0  0  0  0  0  0  0  0  0  0
   -4.1008   -2.2641    0.9082 O   0  0  0  0  0  0  0  0  0  0  0  0
   -4.1105   -1.1486   -1.3550 O   0  0  0  0  0  0  0  0  0  0  0  0
   -2.1480   -0.6323    0.2881 C   0  0  0  0  0  0  0  0  0  0  0  0
   -1.3312   -0.5246   -0.8439 C   0  0  0  0  0  0  0  0  0  0  0  0
    0.0151   -0.1779   -0.6895 C   0  0  0  0  0  0  0  0  0  0  0  0
    0.5822    0.0740    0.5605 C   0  0  0  0  0  0  0  0  0  0  0  0
    1.9472    0.2932    0.7575 N   0  0  0  0  0  0  0  0  0  0  0  0
    2.7635    0.7450   -0.3666 C   0  0  0  0  0  0  0  0  0  0  0  0
    2.5703   -0.2034   -1.4531 N   0  0  0  0  0  0  0  0  0  0  0  0
    1.0410   -0.1118   -2.1164 S   0  0  0  0  0  0  0  0  0  0  0  0
    0.8852    1.2017   -2.6978 O   0  0  0  0  0  0  0  0  0  0  0  0
    0.8464   -1.3286   -2.8692 O   0  0  0  0  0  0  0  0  0  0  0  0
    4.2782    0.8428   -0.0005 C   0  0  0  0  0  0  0  0  0  0  0  0
    4.5431    2.0432    1.3015 Cl  0  0  0  0  0  0  0  0  0  0  0  0
    4.9456   -0.7374    0.5247 Cl  0  0  0  0  0  0  0  0  0  0  0  0
   -0.2510   -0.0675    1.6799 C   0  0  0  0  0  0  0  0  0  0  0  0
   -1.6105   -0.4045    1.5552 C   0  0  0  0  0  0  0  0  0  0  0  0
   -2.5153   -0.5126    3.0222 Cl  0  0  0  0  0  0  0  0  0  0  0  0
  1  2  1  0
  2  3  2  0
  2  4  2  0
  2  5  1  0
  5  6  2  0
  6  7  1  0
  7  8  2  0
  8  9  1  0
  9 10  1  0
 10 11  1  0
 11 12  1  0
 12 13  2  0
 12 14  2  0
 10 15  1  0
 15 16  1  0
 15 17  1  0
  8 18  1  0
 18 19  2  0
 19 20  1  0
 12  7  1  0
 19  5  1  0
M  END
>  <target>  (762) 
-2.68

$$$$

     RDKit          3D

  5  4  0  0  0  0  0  0  0  0999 V2000
    2.0867   -0.0089    0.3961 C   0  0  0  0  0  0  0  0  0  0  0  0
    0.8084   -0.6528   -0.0378 C   0  0  0  0  0  0  0  0  0  0  0  0
   -0.4206   -0.1059   -0.1115 C   0  0  0  0  0  0  0  0  0  0  0  0
   -1.5955   -0.9271   -0.5779 C   0  0  0  0  0  0  0  0  0  0  0  0
   -0.7678    1.3143    0.2404 C   0  0  0  0  0  0  0  0  0  0  0  0
  1  2  1  0
  2  3  2  3
  3  4  1  0
  3  5  1  0
M  END
>  <target>  (763) 
-2.56

$$$$

     RDKit          3D

  9  9  0  0  0  0  0  0  0  0999 V2000
    3.1562   -0.2280   -0.2787 C   0  0  0  0  0  0  0  0  0  0  0  0
    1.6628   -0.3214   -0.1773 C   0  0  0  0  0  0  0  0  0  0  0  0
    1.0036   -1.5103   -0.4958 C   0  0  0  0  0  0  0  0  0  0  0  0
   -0.3886   -1.5848   -0.4303 C   0  0  0  0  0  0  0  0  0  0  0  0
   -1.1522   -0.4698   -0.0548 C   0  0  0  0  0  0  0  0  0  0  0  0
   -2.6503   -0.5884    0.0029 C   0  0  0  0  0  0  0  0  0  0  0  0
   -0.4976    0.7392    0.2521 C   0  0  0  0  0  0  0  0  0  0  0  0
   -1.2678    1.9680    0.6515 C   0  0  0  0  0  0  0  0  0  0  0  0
    0.9046    0.7995    0.1826 C   0  0  0  0  0  0  0  0  0  0  0  0
  1  2  1  0
  2  3  2  0
  3  4  1  0
  4  5  2  0
  5  6  1  0
  5  7  1  0
  7  8  1  0
  7  9  2  0
  9  2  1  0
M  END
>  <target>  (764) 
-3.31

$$$$

     RDKit          3D

 10 10  0  0  0  0  0  0  0  0999 V2000
   -2.3569   -0.9556    0.0263 O   0  0  0  0  0  0  0  0  0  0  0  0
   -1.0859   -0.4522    0.0125 C   0  0  0  0  0  0  0  0  0  0  0  0
   -0.0372   -1.3661    0.0442 C   0  0  0  0  0  0  0  0  0  0  0  0
    1.2818   -0.9048    0.0319 C   0  0  0  0  0  0  0  0  0  0  0  0
    2.5456   -2.0818    0.0725 Cl  0  0  0  0  0  0  0  0  0  0  0  0
    1.5403    0.4730   -0.0123 C   0  0  0  0  0  0  0  0  0  0  0  0
    3.1462    1.1114   -0.0298 Cl  0  0  0  0  0  0  0  0  0  0  0  0
    0.4809    1.3863   -0.0440 C   0  0  0  0  0  0  0  0  0  0  0  0
   -0.8319    0.9201   -0.0315 C   0  0  0  0  0  0  0  0  0  0  0  0
   -2.1345    2.0475   -0.0706 Cl  0  0  0  0  0  0  0  0  0  0  0  0
  1  2  1  0
  2  3  2  0
  3  4  1  0
  4  5  1  0
  4  6  2  0
  6  7  1  0
  6  8  1  0
  8  9  2  0
  9 10  1  0
  9  2  1  0
M  END
>  <target>  (765) 
-2.21

$$$$

     RDKit          3D

 14 16  0  0  0  0  0  0  0  0999 V2000
    3.4615   -0.3703   -0.4670 C   0  0  0  0  0  0  0  0  0  0  0  0
    2.6986   -1.4998   -0.7279 C   0  0  0  0  0  0  0  0  0  0  0  0
    1.3091   -1.4571   -0.5723 C   0  0  0  0  0  0  0  0  0  0  0  0
    0.6343   -0.2831   -0.1502 C   0  0  0  0  0  0  0  0  0  0  0  0
    1.4361    0.8485    0.1073 C   0  0  0  0  0  0  0  0  0  0  0  0
    2.8339    0.8002   -0.0509 C   0  0  0  0  0  0  0  0  0  0  0  0
    0.7990    2.0117    0.5222 C   0  0  0  0  0  0  0  0  0  0  0  0
   -0.5325    2.1409    0.6979 N   0  0  0  0  0  0  0  0  0  0  0  0
   -1.3025    1.0728    0.4562 C   0  0  0  0  0  0  0  0  0  0  0  0
   -2.6712    1.2171    0.6402 C   0  0  0  0  0  0  0  0  0  0  0  0
   -3.5633    0.1685    0.4169 C   0  0  0  0  0  0  0  0  0  0  0  0
   -3.0796   -1.0602   -0.0019 C   0  0  0  0  0  0  0  0  0  0  0  0
   -1.7079   -1.2300   -0.1940 C   0  0  0  0  0  0  0  0  0  0  0  0
   -0.7863   -0.1737    0.0286 C   0  0  0  0  0  0  0  0  0  0  0  0
  1  2  2  0
  2  3  1  0
  3  4  2  0
  4  5  1  0
  5  6  2  0
  5  7  1  0
  7  8  2  0
  8  9  1  0
  9 10  2  0
 10 11  1  0
 11 12  2  0
 12 13  1  0
 13 14  2  0
  6  1  1  0
 14  4  1  0
 14  9  1  0
M  END
>  <target>  (766) 
-2.78

$$$$

     RDKit          3D

  8  7  0  0  0  0  0  0  0  0999 V2000
    3.3290   -0.1832    0.3903 C   0  0  0  0  0  0  0  0  0  0  0  0
    2.0352   -0.1268   -0.4093 C   0  0  0  0  0  0  0  0  0  0  0  0
    0.8129   -0.0620    0.5147 C   0  0  0  0  0  0  0  0  0  0  0  0
   -0.5439    0.1069   -0.2119 C   0  0  0  0  0  0  0  0  0  0  0  0
   -0.8272   -1.0639   -1.1576 C   0  0  0  0  0  0  0  0  0  0  0  0
   -0.4958    1.2941   -1.0072 O   0  0  0  0  0  0  0  0  0  0  0  0
   -1.6606    0.2629    0.8474 C   0  0  0  0  0  0  0  0  0  0  0  0
   -3.0495    0.5389    0.2818 C   0  0  0  0  0  0  0  0  0  0  0  0
  1  2  1  0
  2  3  1  0
  3  4  1  0
  4  5  1  0
  4  6  1  0
  4  7  1  0
  7  8  1  0
M  END
>  <target>  (767) 
-0.98

$$$$

     RDKit          3D

  8  7  0  0  0  0  0  0  0  0999 V2000
    4.1602    0.9811    0.1490 C   0  0  0  0  0  0  0  0  0  0  0  0
    3.0513    0.0043    0.5062 C   0  0  0  0  0  0  0  0  0  0  0  0
    1.7082    0.4446   -0.0757 C   0  0  0  0  0  0  0  0  0  0  0  0
    0.5954   -0.5405    0.2860 C   0  0  0  0  0  0  0  0  0  0  0  0
   -0.7494   -0.1001   -0.2969 C   0  0  0  0  0  0  0  0  0  0  0  0
   -1.8613   -1.0857    0.0693 C   0  0  0  0  0  0  0  0  0  0  0  0
   -3.2070   -0.7490   -0.5764 C   0  0  0  0  0  0  0  0  0  0  0  0
   -3.8076    0.5581   -0.0826 C   0  0  0  0  0  0  0  0  0  0  0  0
  1  2  1  0
  2  3  1  0
  3  4  1  0
  4  5  1  0
  5  6  1  0
  6  7  1  0
  7  8  1  0
M  END
>  <target>  (768) 
-5.24

$$$$

     RDKit          3D

 14 16  0  0  0  0  0  0  0  0999 V2000
   -3.6977    0.4533    0.0383 C   0  0  0  0  0  0  0  0  0  0  0  0
   -3.6064   -0.9347    0.0075 C   0  0  0  0  0  0  0  0  0  0  0  0
   -2.3539   -1.5502   -0.0154 C   0  0  0  0  0  0  0  0  0  0  0  0
   -1.1762   -0.7846   -0.0079 C   0  0  0  0  0  0  0  0  0  0  0  0
    0.0914   -1.3898   -0.0308 C   0  0  0  0  0  0  0  0  0  0  0  0
    1.2688   -0.6235   -0.0232 C   0  0  0  0  0  0  0  0  0  0  0  0
    2.5367   -1.2279   -0.0461 C   0  0  0  0  0  0  0  0  0  0  0  0
    3.6977   -0.4533   -0.0383 C   0  0  0  0  0  0  0  0  0  0  0  0
    3.6064    0.9347   -0.0075 C   0  0  0  0  0  0  0  0  0  0  0  0
    2.3539    1.5502    0.0154 C   0  0  0  0  0  0  0  0  0  0  0  0
    1.1762    0.7846    0.0079 C   0  0  0  0  0  0  0  0  0  0  0  0
   -0.0914    1.3898    0.0308 C   0  0  0  0  0  0  0  0  0  0  0  0
   -1.2688    0.6235    0.0232 C   0  0  0  0  0  0  0  0  0  0  0  0
   -2.5367    1.2279    0.0461 C   0  0  0  0  0  0  0  0  0  0  0  0
  1  2  2  0
  2  3  1  0
  3  4  2  0
  4  5  1  0
  5  6  2  0
  6  7  1  0
  7  8  2  0
  8  9  1  0
  9 10  2  0
 10 11  1  0
 11 12  2  0
 12 13  1  0
 13 14  2  0
 14  1  1  0
 13  4  1  0
 11  6  1  0
M  END
>  <target>  (769) 
-6.35

$$$$

     RDKit          3D

  8  8  0  0  0  0  0  0  0  0999 V2000
    2.8711    0.0664   -0.0603 N   0  0  0  0  0  0  0  0  0  0  0  0
    1.7985   -0.8302   -0.1754 N   0  0  0  0  0  0  0  0  0  0  0  0
    0.4669   -0.3629   -0.0492 C   0  0  0  0  0  0  0  0  0  0  0  0
    0.1046    0.9779   -0.2375 C   0  0  0  0  0  0  0  0  0  0  0  0
   -1.2335    1.3791   -0.1638 C   0  0  0  0  0  0  0  0  0  0  0  0
   -2.2330    0.4397    0.0748 C   0  0  0  0  0  0  0  0  0  0  0  0
   -1.8965   -0.9020    0.2276 C   0  0  0  0  0  0  0  0  0  0  0  0
   -0.5583   -1.2994    0.1536 C   0  0  0  0  0  0  0  0  0  0  0  0
  1  2  1  0
  2  3  1  0
  3  4  2  0
  4  5  1  0
  5  6  2  0
  6  7  1  0
  7  8  2  0
  8  3  1  0
M  END
>  <target>  (770) 
0.07

$$$$

     RDKit          3D

  4  3  0  0  0  0  0  0  0  0999 V2000
   -1.1108   -0.3040   -0.1825 C   0  0  0  0  0  0  0  0  0  0  0  0
    0.0944    0.5931    0.0225 C   0  0  0  0  0  0  0  0  0  0  0  0
    1.3729   -0.1838    0.2187 C   0  0  0  0  0  0  0  0  0  0  0  0
    1.4542   -1.4075    0.2167 O   0  0  0  0  0  0  0  0  0  0  0  0
  1  2  1  0
  2  3  1  0
  3  4  2  0
M  END
>  <target>  (771) 
0.58

$$$$

     RDKit          3D

  8  8  0  0  0  0  0  0  0  0999 V2000
   -1.3551   -0.6890    0.8072 C   0  0  0  0  0  0  0  0  0  0  0  0
   -0.6177   -1.7859    0.0457 C   0  0  0  0  0  0  0  0  0  0  0  0
    0.7255   -1.4274   -0.5899 C   0  0  0  0  0  0  0  0  0  0  0  0
    1.6598   -0.5926    0.2861 C   0  0  0  0  0  0  0  0  0  0  0  0
    1.7062    0.8950   -0.0704 C   0  0  0  0  0  0  0  0  0  0  0  0
    0.4467    1.7148    0.2190 C   0  0  0  0  0  0  0  0  0  0  0  0
   -0.7495    1.3781   -0.6715 C   0  0  0  0  0  0  0  0  0  0  0  0
   -1.8217    0.5041   -0.0209 C   0  0  0  0  0  0  0  0  0  0  0  0
  1  2  1  0
  2  3  1  0
  3  4  1  0
  4  5  1  0
  5  6  1  0
  6  7  1  0
  7  8  1  0
  8  1  1  0
M  END
>  <target>  (772) 
-4.15

$$$$

     RDKit          3D

 15 15  0  0  0  0  0  0  0  0999 V2000
    0.3891   -0.6735   -2.2505 O   0  0  0  0  0  0  0  0  0  0  0  0
    0.1668   -1.0453   -1.1003 C   0  0  0  0  0  0  0  0  0  0  0  0
    0.0644   -2.3811   -0.8283 N   0  0  0  0  0  0  0  0  0  0  0  0
    0.3922   -2.9237    0.3731 C   0  0  0  0  0  0  0  0  0  0  0  0
    0.7334   -4.0972    0.4744 O   0  0  0  0  0  0  0  0  0  0  0  0
    0.3972   -2.0867    1.4440 N   0  0  0  0  0  0  0  0  0  0  0  0
    0.3999   -0.7198    1.3789 C   0  0  0  0  0  0  0  0  0  0  0  0
    0.6911   -0.0657    2.3787 O   0  0  0  0  0  0  0  0  0  0  0  0
   -0.0755   -0.1046    0.0700 C   0  0  0  0  0  0  0  0  0  0  0  0
   -1.6138    0.0644    0.2430 C   0  0  0  0  0  0  0  0  0  0  0  0
   -2.3223    0.7737   -0.8823 C   0  0  0  0  0  0  0  0  0  0  0  0
   -2.9917    1.9240   -0.7349 C   0  0  0  0  0  0  0  0  0  0  0  0
    0.6145    1.2619   -0.1551 C   0  0  0  0  0  0  0  0  0  0  0  0
    2.1137    1.1842   -0.3266 C   0  0  0  0  0  0  0  0  0  0  0  0
    2.9966    1.5781    0.5993 C   0  0  0  0  0  0  0  0  0  0  0  0
  1  2  2  0
  2  3  1  0
  3  4  1  0
  4  5  2  0
  4  6  1  0
  6  7  1  0
  7  8  2  0
  7  9  1  0
  9 10  1  0
 10 11  1  0
 11 12  2  0
  9 13  1  0
 13 14  1  0
 14 15  2  0
  9  2  1  0
M  END
>  <target>  (773) 
-2.077

$$$$

     RDKit          3D

  4  3  0  0  0  0  0  0  0  0999 V2000
   -0.7921    1.4803   -0.4520 Cl  0  0  0  0  0  0  0  0  0  0  0  0
    0.0004    0.0010    0.1158 C   0  0  0  0  0  0  0  0  0  0  0  0
   -0.8913   -1.4307   -0.4264 Cl  0  0  0  0  0  0  0  0  0  0  0  0
    1.6794   -0.0611   -0.4462 Cl  0  0  0  0  0  0  0  0  0  0  0  0
  1  2  1  0
  2  3  1  0
  2  4  1  0
M  END
>  <target>  (774) 
-1.17

$$$$

     RDKit          3D

  8  8  0  0  0  0  0  0  0  0999 V2000
    2.7998   -0.3025   -0.1499 S   0  0  0  0  0  0  0  0  0  0  0  0
    1.1002    0.0037   -0.0530 C   0  0  0  0  0  0  0  0  0  0  0  0
    0.6418    1.2070    0.0269 N   0  0  0  0  0  0  0  0  0  0  0  0
   -0.7233    1.3225    0.0985 C   0  0  0  0  0  0  0  0  0  0  0  0
   -1.5794    0.2954    0.0906 C   0  0  0  0  0  0  0  0  0  0  0  0
   -1.0173   -1.0617   -0.0018 C   0  0  0  0  0  0  0  0  0  0  0  0
   -1.7356   -2.0530   -0.0147 O   0  0  0  0  0  0  0  0  0  0  0  0
    0.3405   -1.1208   -0.0703 N   0  0  0  0  0  0  0  0  0  0  0  0
  1  2  1  0
  2  3  2  0
  3  4  1  0
  4  5  2  0
  5  6  1  0
  6  7  2  0
  6  8  1  0
  8  2  1  0
M  END
>  <target>  (775) 
-2.273

$$$$

     RDKit          3D

 23 25  0  0  0  0  0  0  0  0999 V2000
   -4.1004   -4.4053    1.4021 Cl  0  0  0  0  0  0  0  0  0  0  0  0
   -3.1803   -2.9632    1.2236 C   0  0  0  0  0  0  0  0  0  0  0  0
   -2.9346   -2.4508   -0.0471 C   0  0  0  0  0  0  0  0  0  0  0  0
   -2.1854   -1.2802   -0.1922 C   0  0  0  0  0  0  0  0  0  0  0  0
   -1.6665   -0.6179    0.9312 C   0  0  0  0  0  0  0  0  0  0  0  0
   -0.8542    0.6574    0.8210 C   0  0  0  0  0  0  0  0  0  0  0  0
   -0.1648    0.8319   -0.4641 N   0  0  0  0  0  0  0  0  0  0  0  0
   -0.5550    1.9653   -1.3130 C   0  0  0  0  0  0  0  0  0  0  0  0
   -0.1338    3.3319   -0.7398 C   0  0  0  0  0  0  0  0  0  0  0  0
   -1.3657    4.2278   -0.8468 C   0  0  0  0  0  0  0  0  0  0  0  0
   -2.2358    3.5694   -1.9050 C   0  0  0  0  0  0  0  0  0  0  0  0
   -2.0541    2.0864   -1.6218 C   0  0  0  0  0  0  0  0  0  0  0  0
    1.1295    0.3165   -0.6691 C   0  0  0  0  0  0  0  0  0  0  0  0
    1.8993    0.8182   -1.4842 O   0  0  0  0  0  0  0  0  0  0  0  0
    1.4194   -0.7889    0.1026 N   0  0  0  0  0  0  0  0  0  0  0  0
    2.6616   -1.4399    0.2415 C   0  0  0  0  0  0  0  0  0  0  0  0
    3.8736   -0.9034   -0.1956 C   0  0  0  0  0  0  0  0  0  0  0  0
    5.0679   -1.6057   -0.0052 C   0  0  0  0  0  0  0  0  0  0  0  0
    5.0604   -2.8458    0.6294 C   0  0  0  0  0  0  0  0  0  0  0  0
    3.8577   -3.3850    1.0777 C   0  0  0  0  0  0  0  0  0  0  0  0
    2.6644   -2.6835    0.8873 C   0  0  0  0  0  0  0  0  0  0  0  0
   -1.9374   -1.1429    2.2057 C   0  0  0  0  0  0  0  0  0  0  0  0
   -2.6871   -2.3128    2.3513 C   0  0  0  0  0  0  0  0  0  0  0  0
  1  2  1  0
  2  3  2  0
  3  4  1  0
  4  5  2  0
  5  6  1  0
  6  7  1  0
  7  8  1  0
  8  9  1  0
  9 10  1  0
 10 11  1  0
 11 12  1  0
  7 13  1  0
 13 14  2  0
 13 15  1  0
 15 16  1  0
 16 17  2  0
 17 18  1  0
 18 19  2  0
 19 20  1  0
 20 21  2  0
  5 22  1  0
 22 23  2  0
 23  2  1  0
 12  8  1  0
 21 16  1  0
M  END
>  <target>  (776) 
-5.915

$$$$

     RDKit          3D

  7  7  0  0  0  0  0  0  0  0999 V2000
    2.4856   -0.3150    0.0782 C   0  0  0  0  0  0  0  0  0  0  0  0
    0.9897   -0.2098    0.0090 C   0  0  0  0  0  0  0  0  0  0  0  0
    0.2045   -1.2880   -0.1655 C   0  0  0  0  0  0  0  0  0  0  0  0
   -1.2953   -1.2286   -0.2020 C   0  0  0  0  0  0  0  0  0  0  0  0
   -1.8575    0.1020    0.2992 C   0  0  0  0  0  0  0  0  0  0  0  0
   -1.0573    1.2774   -0.2500 C   0  0  0  0  0  0  0  0  0  0  0  0
    0.4176    1.1805    0.1495 C   0  0  0  0  0  0  0  0  0  0  0  0
  1  2  1  0
  2  3  2  0
  3  4  1  0
  4  5  1  0
  5  6  1  0
  6  7  1  0
  7  2  1  0
M  END
>  <target>  (777) 
-3.27

$$$$

     RDKit          3D

  9  8  0  0  0  0  0  0  0  0999 V2000
    3.8603   -0.5537    0.4568 C   0  0  0  0  0  0  0  0  0  0  0  0
    2.4395   -0.9439    0.8319 C   0  0  0  0  0  0  0  0  0  0  0  0
    1.4100   -0.0852    0.0965 C   0  0  0  0  0  0  0  0  0  0  0  0
   -0.0203   -0.4840    0.4786 C   0  0  0  0  0  0  0  0  0  0  0  0
   -1.0811    0.3274   -0.2831 C   0  0  0  0  0  0  0  0  0  0  0  0
   -2.4828   -0.2455   -0.0247 C   0  0  0  0  0  0  0  0  0  0  0  0
   -3.5494    0.3930   -0.9057 C   0  0  0  0  0  0  0  0  0  0  0  0
   -1.0368    1.7701    0.1783 C   0  0  0  0  0  0  0  0  0  0  0  0
   -0.7947    2.7095   -0.5734 O   0  0  0  0  0  0  0  0  0  0  0  0
  1  2  1  0
  2  3  1  0
  3  4  1  0
  4  5  1  0
  5  6  1  0
  6  7  1  0
  5  8  1  0
  8  9  2  0
M  END
>  <target>  (778) 
-2.13

$$$$

     RDKit          3D

 19 21  0  0  0  0  0  0  0  0999 V2000
    2.1124    3.1895   -0.1629 C   0  0  0  0  0  0  0  0  0  0  0  0
    2.0610    1.7742   -0.2773 O   0  0  0  0  0  0  0  0  0  0  0  0
    0.8510    1.1662    0.0198 C   0  0  0  0  0  0  0  0  0  0  0  0
   -0.3410    1.7844    0.4228 C   0  0  0  0  0  0  0  0  0  0  0  0
   -0.5522    3.1220    0.6133 O   0  0  0  0  0  0  0  0  0  0  0  0
   -1.8342    3.2838    1.0235 C   0  0  0  0  0  0  0  0  0  0  0  0
   -2.4691    2.0693    1.0992 C   0  0  0  0  0  0  0  0  0  0  0  0
   -1.5157    1.0893    0.7021 C   0  0  0  0  0  0  0  0  0  0  0  0
   -1.5312   -0.3138    0.5596 C   0  0  0  0  0  0  0  0  0  0  0  0
   -2.6730   -1.0022    0.8908 O   0  0  0  0  0  0  0  0  0  0  0  0
   -3.5262   -1.1296   -0.2476 C   0  0  0  0  0  0  0  0  0  0  0  0
   -0.3474   -0.9763    0.1801 C   0  0  0  0  0  0  0  0  0  0  0  0
   -0.2836   -2.4497    0.0383 C   0  0  0  0  0  0  0  0  0  0  0  0
   -1.2433   -3.1974    0.1714 O   0  0  0  0  0  0  0  0  0  0  0  0
    1.0251   -3.0272   -0.3059 C   0  0  0  0  0  0  0  0  0  0  0  0
    2.0669   -2.2201   -0.5315 C   0  0  0  0  0  0  0  0  0  0  0  0
    3.4229   -2.7377   -0.8962 C   0  0  0  0  0  0  0  0  0  0  0  0
    2.0012   -0.8437   -0.4593 O   0  0  0  0  0  0  0  0  0  0  0  0
    0.8160   -0.2416   -0.0847 C   0  0  0  0  0  0  0  0  0  0  0  0
  1  2  1  0
  2  3  1  0
  3  4  2  0
  4  5  1  0
  5  6  1  0
  6  7  2  0
  7  8  1  0
  8  9  2  0
  9 10  1  0
 10 11  1  0
  9 12  1  0
 12 13  1  0
 13 14  2  0
 13 15  1  0
 15 16  2  0
 16 17  1  0
 16 18  1  0
 18 19  1  0
  8  4  1  0
 19  3  1  0
 19 12  2  0
M  END
>  <target>  (779) 
-3.0210000000000004

$$$$

     RDKit          3D

 16 16  0  0  0  0  0  0  0  0999 V2000
   -0.6944    1.8949    1.2652 O   0  0  0  0  0  0  0  0  0  0  0  0
   -1.4126    1.3048    0.4622 C   0  0  0  0  0  0  0  0  0  0  0  0
   -2.4853    1.9430   -0.0954 N   0  0  0  0  0  0  0  0  0  0  0  0
   -2.9719    1.6471   -1.3295 C   0  0  0  0  0  0  0  0  0  0  0  0
   -3.5833    2.4784   -1.9923 O   0  0  0  0  0  0  0  0  0  0  0  0
   -2.6751    0.4188   -1.8313 N   0  0  0  0  0  0  0  0  0  0  0  0
   -1.6540   -0.3722   -1.3807 C   0  0  0  0  0  0  0  0  0  0  0  0
   -1.1798   -1.2392   -2.1110 O   0  0  0  0  0  0  0  0  0  0  0  0
   -1.2301   -0.1548    0.0676 C   0  0  0  0  0  0  0  0  0  0  0  0
   -2.2201   -1.0116    0.9150 C   0  0  0  0  0  0  0  0  0  0  0  0
   -1.9440   -1.0514    2.4141 C   0  0  0  0  0  0  0  0  0  0  0  0
    0.2340   -0.6178    0.2856 C   0  0  0  0  0  0  0  0  0  0  0  0
    1.2754    0.1287   -0.5707 C   0  0  0  0  0  0  0  0  0  0  0  0
    2.6960   -0.4583   -0.4472 C   0  0  0  0  0  0  0  0  0  0  0  0
    3.6335    0.2418   -1.4346 C   0  0  0  0  0  0  0  0  0  0  0  0
    3.2588   -0.3384    0.9698 C   0  0  0  0  0  0  0  0  0  0  0  0
  1  2  2  0
  2  3  1  0
  3  4  1  0
  4  5  2  0
  4  6  1  0
  6  7  1  0
  7  8  2  0
  7  9  1  0
  9 10  1  0
 10 11  1  0
  9 12  1  0
 12 13  1  0
 13 14  1  0
 14 15  1  0
 14 16  1  0
  9  2  1  0
M  END
>  <target>  (780) 
-2.658

$$$$

     RDKit          3D

 20 24  0  0  0  0  0  0  0  0999 V2000
    4.6460    0.5187   -0.5691 C   0  0  0  0  0  0  0  0  0  0  0  0
    3.8268    1.6372   -0.6181 C   0  0  0  0  0  0  0  0  0  0  0  0
    2.4464    1.5000   -0.4511 C   0  0  0  0  0  0  0  0  0  0  0  0
    1.8468    0.2395   -0.2303 C   0  0  0  0  0  0  0  0  0  0  0  0
    0.4669    0.0145   -0.0526 C   0  0  0  0  0  0  0  0  0  0  0  0
   -0.0253   -1.3114    0.1646 C   0  0  0  0  0  0  0  0  0  0  0  0
    0.8114   -2.4082    0.2090 C   0  0  0  0  0  0  0  0  0  0  0  0
    2.1762   -2.1914    0.0339 C   0  0  0  0  0  0  0  0  0  0  0  0
    2.7018   -0.8986   -0.1828 C   0  0  0  0  0  0  0  0  0  0  0  0
    4.0862   -0.7387   -0.3531 C   0  0  0  0  0  0  0  0  0  0  0  0
   -1.4691   -1.2344    0.3121 C   0  0  0  0  0  0  0  0  0  0  0  0
   -2.4408   -2.1955    0.5363 C   0  0  0  0  0  0  0  0  0  0  0  0
   -3.7816   -1.7872    0.6317 C   0  0  0  0  0  0  0  0  0  0  0  0
   -4.1427   -0.4308    0.5036 C   0  0  0  0  0  0  0  0  0  0  0  0
   -3.1559    0.5468    0.2756 C   0  0  0  0  0  0  0  0  0  0  0  0
   -3.3439    1.9298    0.1254 C   0  0  0  0  0  0  0  0  0  0  0  0
   -2.2361    2.7681   -0.0986 C   0  0  0  0  0  0  0  0  0  0  0  0
   -0.9266    2.2527   -0.1773 C   0  0  0  0  0  0  0  0  0  0  0  0
   -0.7207    0.8900   -0.0315 C   0  0  0  0  0  0  0  0  0  0  0  0
   -1.8385    0.0922    0.1885 C   0  0  0  0  0  0  0  0  0  0  0  0
  1  2  2  0
  2  3  1  0
  3  4  2  0
  4  5  1  0
  5  6  2  0
  6  7  1  0
  7  8  2  0
  8  9  1  0
  9 10  2  0
  6 11  1  0
 11 12  2  0
 12 13  1  0
 13 14  2  0
 14 15  1  0
 15 16  1  0
 16 17  2  0
 17 18  1  0
 18 19  2  0
 19 20  1  0
 10  1  1  0
  9  4  1  0
 19  5  1  0
 20 11  1  0
 20 15  2  0
M  END
>  <target>  (781) 
-8.0

$$$$

     RDKit          3D

  7  6  0  0  0  0  0  0  0  0999 V2000
    2.2356    0.1009   -0.1015 C   0  0  0  0  0  0  0  0  0  0  0  0
    1.1007   -0.3306    0.8193 C   0  0  0  0  0  0  0  0  0  0  0  0
   -0.2748   -0.4348    0.1376 C   0  0  0  0  0  0  0  0  0  0  0  0
   -0.7073    0.8803   -0.5268 C   0  0  0  0  0  0  0  0  0  0  0  0
   -2.2006    0.9178   -0.8303 C   0  0  0  0  0  0  0  0  0  0  0  0
   -0.2580   -1.6097   -0.8276 C   0  0  0  0  0  0  0  0  0  0  0  0
   -0.4423   -1.5270   -2.0373 O   0  0  0  0  0  0  0  0  0  0  0  0
  1  2  1  0
  2  3  1  0
  3  4  1  0
  4  5  1  0
  3  6  1  0
  6  7  2  0
M  END
>  <target>  (782) 
-1.52

$$$$

     RDKit          3D

  7  6  0  0  0  0  0  0  0  0999 V2000
   -2.1723    1.6503   -0.2575 C   0  0  0  0  0  0  0  0  0  0  0  0
   -2.3360    0.2068   -0.7123 C   0  0  0  0  0  0  0  0  0  0  0  0
   -1.0108   -0.4244   -1.1246 C   0  0  0  0  0  0  0  0  0  0  0  0
   -0.1447   -0.4812    0.0066 O   0  0  0  0  0  0  0  0  0  0  0  0
    1.1193   -1.0541   -0.3206 C   0  0  0  0  0  0  0  0  0  0  0  0
    1.9995   -1.0747    0.9242 C   0  0  0  0  0  0  0  0  0  0  0  0
    2.3117    0.3248    1.4350 C   0  0  0  0  0  0  0  0  0  0  0  0
  1  2  1  0
  2  3  1  0
  3  4  1  0
  4  5  1  0
  5  6  1  0
  6  7  1  0
M  END
>  <target>  (783) 
-1.62

$$$$

     RDKit          3D

 15 14  0  0  0  0  0  0  0  0999 V2000
    3.0894    1.5243   -2.1544 C   0  0  0  0  0  0  0  0  0  0  0  0
    3.9513    1.3679   -0.9115 C   0  0  0  0  0  0  0  0  0  0  0  0
    4.6622    0.0151   -0.8245 C   0  0  0  0  0  0  0  0  0  0  0  0
    3.7517   -1.2168   -0.8186 C   0  0  0  0  0  0  0  0  0  0  0  0
    2.7701   -1.2432    0.3555 C   0  0  0  0  0  0  0  0  0  0  0  0
    1.9563   -2.5396    0.3654 C   0  0  0  0  0  0  0  0  0  0  0  0
    1.0237   -2.6660    1.5740 C   0  0  0  0  0  0  0  0  0  0  0  0
   -0.0220   -1.5576    1.7311 C   0  0  0  0  0  0  0  0  0  0  0  0
   -0.9629   -1.4317    0.5312 C   0  0  0  0  0  0  0  0  0  0  0  0
   -2.0515   -0.3860    0.7881 C   0  0  0  0  0  0  0  0  0  0  0  0
   -2.9856   -0.2523   -0.4167 C   0  0  0  0  0  0  0  0  0  0  0  0
   -4.1600    0.7005   -0.1735 C   0  0  0  0  0  0  0  0  0  0  0  0
   -3.7295    2.1582    0.0178 C   0  0  0  0  0  0  0  0  0  0  0  0
   -4.9249    3.1019    0.1050 C   0  0  0  0  0  0  0  0  0  0  0  0
   -5.7360    2.7902    1.2289 O   0  0  0  0  0  0  0  0  0  0  0  0
  1  2  1  0
  2  3  1  0
  3  4  1  0
  4  5  1  0
  5  6  1  0
  6  7  1  0
  7  8  1  0
  8  9  1  0
  9 10  1  0
 10 11  1  0
 11 12  1  0
 12 13  1  0
 13 14  1  0
 14 15  1  0
M  END
>  <target>  (784) 
-5.84

$$$$

     RDKit          3D

 10 10  0  0  0  0  0  0  0  0999 V2000
   -2.2705    0.9300    0.4587 O   0  0  0  0  0  0  0  0  0  0  0  0
   -1.0374    0.3738    0.2188 C   0  0  0  0  0  0  0  0  0  0  0  0
   -0.8574   -0.9991    0.4156 C   0  0  0  0  0  0  0  0  0  0  0  0
   -2.1474   -2.0109    0.9526 Cl  0  0  0  0  0  0  0  0  0  0  0  0
    0.3885   -1.5815    0.1768 C   0  0  0  0  0  0  0  0  0  0  0  0
    1.4563   -0.7937   -0.2588 C   0  0  0  0  0  0  0  0  0  0  0  0
    1.2815    0.5797   -0.4572 C   0  0  0  0  0  0  0  0  0  0  0  0
    2.6476    1.4897   -0.9969 Cl  0  0  0  0  0  0  0  0  0  0  0  0
    0.0327    1.1682   -0.2187 C   0  0  0  0  0  0  0  0  0  0  0  0
   -0.2367    2.8653   -0.4490 Cl  0  0  0  0  0  0  0  0  0  0  0  0
  1  2  1  0
  2  3  2  0
  3  4  1  0
  3  5  1  0
  5  6  2  0
  6  7  1  0
  7  8  1  0
  7  9  2  0
  9 10  1  0
  9  2  1  0
M  END
>  <target>  (785) 
-2.64

$$$$

     RDKit          3D

  4  3  0  0  0  0  0  0  0  0999 V2000
    1.0704   -0.3808    0.0559 N   0  0  0  0  0  0  0  0  0  0  0  0
    0.0612    0.4700    0.3397 C   0  0  0  0  0  0  0  0  0  0  0  0
    0.2171    1.6667    0.5101 O   0  0  0  0  0  0  0  0  0  0  0  0
   -1.1388   -0.1441    0.4150 N   0  0  0  0  0  0  0  0  0  0  0  0
  1  2  1  0
  2  3  2  0
  2  4  1  0
M  END
>  <target>  (786) 
0.96

$$$$

     RDKit          3D

  5  4  0  0  0  0  0  0  0  0999 V2000
   -1.9231    0.1964   -0.2228 C   0  0  0  0  0  0  0  0  0  0  0  0
   -0.4876    0.4590    0.2039 C   0  0  0  0  0  0  0  0  0  0  0  0
    0.4730   -0.5623   -0.4021 C   0  0  0  0  0  0  0  0  0  0  0  0
    1.8581   -0.3003    0.0160 C   0  0  0  0  0  0  0  0  0  0  0  0
    2.9904   -0.0891    0.3556 C   0  0  0  0  0  0  0  0  0  0  0  0
  1  2  1  0
  2  3  1  0
  3  4  1  0
  4  5  3  0
M  END
>  <target>  (787) 
-1.64

$$$$

     RDKit          3D

  8  8  0  0  0  0  0  0  0  0999 V2000
   -2.7728   -1.6833    0.4518 Br  0  0  0  0  0  0  0  0  0  0  0  0
   -1.1744   -0.6775    0.3572 C   0  0  0  0  0  0  0  0  0  0  0  0
   -1.2356    0.7165    0.3548 C   0  0  0  0  0  0  0  0  0  0  0  0
   -0.0573    1.4613    0.2851 C   0  0  0  0  0  0  0  0  0  0  0  0
    1.1757    0.8108    0.2180 C   0  0  0  0  0  0  0  0  0  0  0  0
    1.2239   -0.5837    0.2211 C   0  0  0  0  0  0  0  0  0  0  0  0
    2.8962   -1.4616    0.1302 Br  0  0  0  0  0  0  0  0  0  0  0  0
    0.0524   -1.3358    0.2905 C   0  0  0  0  0  0  0  0  0  0  0  0
  1  2  1  0
  2  3  2  0
  3  4  1  0
  4  5  2  0
  5  6  1  0
  6  7  1  0
  6  8  2  0
  8  2  1  0
M  END
>  <target>  (788) 
-3.54

$$$$

     RDKit          3D

 19 18  0  0  0  0  0  0  0  0999 V2000
   -9.4140    1.5278   -1.3106 C   0  0  0  0  0  0  0  0  0  0  0  0
   -7.9784    1.0499   -1.4689 C   0  0  0  0  0  0  0  0  0  0  0  0
   -7.4874    0.3352   -0.2092 C   0  0  0  0  0  0  0  0  0  0  0  0
   -6.0885   -0.2728   -0.3568 C   0  0  0  0  0  0  0  0  0  0  0  0
   -4.9832    0.7768   -0.5015 C   0  0  0  0  0  0  0  0  0  0  0  0
   -3.5826    0.1707   -0.6524 C   0  0  0  0  0  0  0  0  0  0  0  0
   -3.0743   -0.5113    0.6209 C   0  0  0  0  0  0  0  0  0  0  0  0
   -1.6740   -1.1182    0.4700 C   0  0  0  0  0  0  0  0  0  0  0  0
   -0.5683   -0.0689    0.3244 C   0  0  0  0  0  0  0  0  0  0  0  0
    0.8320   -0.6759    0.1744 C   0  0  0  0  0  0  0  0  0  0  0  0
    1.3406   -1.3555    1.4487 C   0  0  0  0  0  0  0  0  0  0  0  0
    2.7397   -1.9624    1.2968 C   0  0  0  0  0  0  0  0  0  0  0  0
    3.8429   -0.9170    1.1100 C   0  0  0  0  0  0  0  0  0  0  0  0
    5.2259   -1.5738    1.0829 C   0  0  0  0  0  0  0  0  0  0  0  0
    6.3773   -0.5666    1.0089 C   0  0  0  0  0  0  0  0  0  0  0  0
    6.4154    0.2199   -0.3031 C   0  0  0  0  0  0  0  0  0  0  0  0
    7.6472    1.1215   -0.3718 C   0  0  0  0  0  0  0  0  0  0  0  0
    7.6925    1.9122   -1.6728 C   0  0  0  0  0  0  0  0  0  0  0  0
    8.8413    2.7488   -1.6887 O   0  0  0  0  0  0  0  0  0  0  0  0
  1  2  1  0
  2  3  1  0
  3  4  1  0
  4  5  1  0
  5  6  1  0
  6  7  1  0
  7  8  1  0
  8  9  1  0
  9 10  1  0
 10 11  1  0
 11 12  1  0
 12 13  1  0
 13 14  1  0
 14 15  1  0
 15 16  1  0
 16 17  1  0
 17 18  1  0
 18 19  1  0
M  END
>  <target>  (789) 
-8.4

$$$$

     RDKit          3D

 10 10  0  0  0  0  0  0  0  0999 V2000
    3.4437   -0.1930   -0.1387 C   0  0  0  0  0  0  0  0  0  0  0  0
    2.0658   -0.6379    0.2852 C   0  0  0  0  0  0  0  0  0  0  0  0
    1.9132   -1.6667    0.9335 O   0  0  0  0  0  0  0  0  0  0  0  0
    1.0844    0.2493   -0.1186 N   0  0  0  0  0  0  0  0  0  0  0  0
   -0.3049    0.1545    0.1051 C   0  0  0  0  0  0  0  0  0  0  0  0
   -0.9171   -0.8994    0.7853 C   0  0  0  0  0  0  0  0  0  0  0  0
   -2.3046   -0.9177    0.9636 C   0  0  0  0  0  0  0  0  0  0  0  0
   -3.0912    0.1167    0.4631 C   0  0  0  0  0  0  0  0  0  0  0  0
   -2.4914    1.1723   -0.2174 C   0  0  0  0  0  0  0  0  0  0  0  0
   -1.1053    1.1905   -0.3954 C   0  0  0  0  0  0  0  0  0  0  0  0
  1  2  1  0
  2  3  2  0
  2  4  1  0
  4  5  1  0
  5  6  2  0
  6  7  1  0
  7  8  2  0
  8  9  1  0
  9 10  2  0
 10  5  1  0
M  END
>  <target>  (790) 
-1.33

$$$$

     RDKit          3D

 22 25  0  0  0  0  0  0  0  0999 V2000
    1.5205    1.6526    0.0258 C   0  0  0  0  0  0  0  0  0  0  0  0
    2.8307    2.0394    0.3315 C   0  0  0  0  0  0  0  0  0  0  0  0
    3.7724    1.0728    0.6428 C   0  0  0  0  0  0  0  0  0  0  0  0
    5.0496    1.4531    0.9319 O   0  0  0  0  0  0  0  0  0  0  0  0
    3.4267   -0.2714    0.6400 C   0  0  0  0  0  0  0  0  0  0  0  0
    4.4018   -1.1923    0.9216 O   0  0  0  0  0  0  0  0  0  0  0  0
    2.1211   -0.6682    0.3465 C   0  0  0  0  0  0  0  0  0  0  0  0
    1.9134   -2.0311    0.3078 O   0  0  0  0  0  0  0  0  0  0  0  0
    0.5325   -2.4428    0.2526 C   0  0  0  0  0  0  0  0  0  0  0  0
   -0.2871   -1.6002   -0.7271 C   0  0  0  0  0  0  0  0  0  0  0  0
    0.2194   -1.7279   -2.0583 O   0  0  0  0  0  0  0  0  0  0  0  0
   -1.7878   -1.9329   -0.7339 C   0  0  0  0  0  0  0  0  0  0  0  0
   -2.4422   -0.6022   -0.5088 C   0  0  0  0  0  0  0  0  0  0  0  0
   -3.7400   -0.2865   -0.5917 C   0  0  0  0  0  0  0  0  0  0  0  0
   -4.1604    1.0980   -0.2544 C   0  0  0  0  0  0  0  0  0  0  0  0
   -5.3292    1.4619   -0.3478 O   0  0  0  0  0  0  0  0  0  0  0  0
   -3.1204    2.0517    0.2600 C   0  0  0  0  0  0  0  0  0  0  0  0
   -3.5410    3.2982    0.6827 O   0  0  0  0  0  0  0  0  0  0  0  0
   -1.8307    1.6887    0.3180 C   0  0  0  0  0  0  0  0  0  0  0  0
   -1.4341    0.3847   -0.1570 C   0  0  0  0  0  0  0  0  0  0  0  0
   -0.2121   -0.1616   -0.2786 C   0  0  0  0  0  0  0  0  0  0  0  0
    1.1401    0.3016    0.0553 C   0  0  0  0  0  0  0  0  0  0  0  0
  1  2  2  0
  2  3  1  0
  3  4  1  0
  3  5  2  0
  5  6  1  0
  5  7  1  0
  7  8  1  0
  8  9  1  0
  9 10  1  0
 10 11  1  0
 10 12  1  0
 12 13  1  0
 13 14  2  0
 14 15  1  0
 15 16  2  0
 15 17  1  0
 17 18  1  0
 17 19  2  0
 19 20  1  0
 20 21  2  0
 21 22  1  0
 22  1  1  0
 22  7  2  0
 21 10  1  0
 20 13  1  0
M  END
>  <target>  (791) 
-2.7

$$$$

     RDKit          3D

 10 10  0  0  0  0  0  0  0  0999 V2000
   -2.2103   -1.2235   -0.5395 C   0  0  0  0  0  0  0  0  0  0  0  0
   -3.0588   -0.1741   -0.5273 N   0  0  0  0  0  0  0  0  0  0  0  0
   -2.5187    1.0529   -0.3674 C   0  0  0  0  0  0  0  0  0  0  0  0
   -1.1623    1.2788   -0.2318 C   0  0  0  0  0  0  0  0  0  0  0  0
   -0.3056    0.1777   -0.2695 C   0  0  0  0  0  0  0  0  0  0  0  0
    1.1534    0.4197   -0.1196 C   0  0  0  0  0  0  0  0  0  0  0  0
    1.5612    1.4338    0.4408 O   0  0  0  0  0  0  0  0  0  0  0  0
    2.0028   -0.5328   -0.6717 N   0  0  0  0  0  0  0  0  0  0  0  0
    3.3961   -0.2974   -0.6492 N   0  0  0  0  0  0  0  0  0  0  0  0
   -0.8372   -1.1044   -0.4141 C   0  0  0  0  0  0  0  0  0  0  0  0
  1  2  2  0
  2  3  1  0
  3  4  2  0
  4  5  1  0
  5  6  1  0
  6  7  2  0
  6  8  1  0
  8  9  1  0
  5 10  2  0
 10  1  1  0
M  END
>  <target>  (792) 
0.009000000000000001

$$$$

     RDKit          3D

 17 19  0  0  0  0  0  0  0  0999 V2000
   -2.4892   -1.3875   -1.1582 O   0  0  0  0  0  0  0  0  0  0  0  0
   -1.5575   -1.0010   -0.1634 C   0  0  0  0  0  0  0  0  0  0  0  0
   -2.1143    0.1814    0.5592 C   0  0  0  0  0  0  0  0  0  0  0  0
   -1.4065    1.3014    0.3731 C   0  0  0  0  0  0  0  0  0  0  0  0
   -0.2243    1.0745   -0.5171 C   0  0  0  0  0  0  0  0  0  0  0  0
   -0.2961   -0.4607   -0.8460 C   0  0  0  0  0  0  0  0  0  0  0  0
    1.0848   -0.9659   -0.3214 C   0  0  0  0  0  0  0  0  0  0  0  0
    1.5266   -2.5508   -0.9364 Cl  0  0  0  0  0  0  0  0  0  0  0  0
    1.1416   -0.7974    1.1864 C   0  0  0  0  0  0  0  0  0  0  0  0
    1.2206    0.5140    1.4400 C   0  0  0  0  0  0  0  0  0  0  0  0
    1.2456    1.2841    2.9476 Cl  0  0  0  0  0  0  0  0  0  0  0  0
    1.2057    1.2323    0.1037 C   0  0  0  0  0  0  0  0  0  0  0  0
    1.7961    2.8857    0.0999 Cl  0  0  0  0  0  0  0  0  0  0  0  0
    2.0323    0.2101   -0.7379 C   0  0  0  0  0  0  0  0  0  0  0  0
    2.0877    0.5593   -2.5026 Cl  0  0  0  0  0  0  0  0  0  0  0  0
    3.7529    0.0174   -0.2153 Cl  0  0  0  0  0  0  0  0  0  0  0  0
    1.0549   -2.0674    2.3032 Cl  0  0  0  0  0  0  0  0  0  0  0  0
  1  2  1  0
  2  3  1  0
  3  4  2  0
  4  5  1  0
  5  6  1  0
  6  7  1  0
  7  8  1  0
  7  9  1  0
  9 10  2  0
 10 11  1  0
 10 12  1  0
 12 13  1  0
 12 14  1  0
 14 15  1  0
 14 16  1  0
  9 17  1  0
  6  2  1  0
 12  5  1  0
 14  7  1  0
M  END
>  <target>  (793) 
-5.46

$$$$

     RDKit          3D

  8  7  0  0  0  0  0  0  0  0999 V2000
   -1.6353    0.8228   -1.0244 C   0  0  0  0  0  0  0  0  0  0  0  0
   -1.1923   -0.3930   -0.2095 C   0  0  0  0  0  0  0  0  0  0  0  0
   -2.2503   -0.7208    0.8468 C   0  0  0  0  0  0  0  0  0  0  0  0
    0.1716   -0.1797    0.4668 C   0  0  0  0  0  0  0  0  0  0  0  0
    1.3223    0.0169   -0.5172 C   0  0  0  0  0  0  0  0  0  0  0  0
    2.5411    0.0903    0.2374 O   0  0  0  0  0  0  0  0  0  0  0  0
    3.6527    0.2519   -0.5220 C   0  0  0  0  0  0  0  0  0  0  0  0
    3.6985    0.3366   -1.7383 O   0  0  0  0  0  0  0  0  0  0  0  0
  1  2  1  0
  2  3  1  0
  2  4  1  0
  4  5  1  0
  5  6  1  0
  6  7  1  0
  7  8  2  0
M  END
>  <target>  (794) 
-1.52

$$$$

     RDKit          3D

  9  9  0  0  0  0  0  0  0  0999 V2000
    2.6740    0.3624   -0.3588 C   0  0  0  0  0  0  0  0  0  0  0  0
    1.6749   -0.6474    0.1424 C   0  0  0  0  0  0  0  0  0  0  0  0
    2.0392   -1.7400    0.5731 O   0  0  0  0  0  0  0  0  0  0  0  0
    0.2216   -0.3042    0.1106 C   0  0  0  0  0  0  0  0  0  0  0  0
   -0.2459    0.9255   -0.3696 C   0  0  0  0  0  0  0  0  0  0  0  0
   -1.6167    1.1994   -0.3787 C   0  0  0  0  0  0  0  0  0  0  0  0
   -2.5247    0.2507    0.0898 C   0  0  0  0  0  0  0  0  0  0  0  0
   -2.0668   -0.9748    0.5691 C   0  0  0  0  0  0  0  0  0  0  0  0
   -0.6985   -1.2521    0.5798 C   0  0  0  0  0  0  0  0  0  0  0  0
  1  2  1  0
  2  3  2  0
  2  4  1  0
  4  5  2  0
  5  6  1  0
  6  7  2  0
  7  8  1  0
  8  9  2  0
  9  4  1  0
M  END
>  <target>  (795) 
-1.28

$$$$

     RDKit          3D

 20 23  0  0  0  0  0  0  0  0999 V2000
   -5.6949   -0.0144    0.3378 C   0  0  0  0  0  0  0  0  0  0  0  0
   -5.1317    0.0239    1.6082 C   0  0  0  0  0  0  0  0  0  0  0  0
   -3.7410    0.0344    1.7529 C   0  0  0  0  0  0  0  0  0  0  0  0
   -2.8911    0.0075    0.6551 C   0  0  0  0  0  0  0  0  0  0  0  0
   -1.5601    0.0191    0.8499 N   0  0  0  0  0  0  0  0  0  0  0  0
   -0.7285   -0.0074   -0.2297 C   0  0  0  0  0  0  0  0  0  0  0  0
   -1.2306   -0.0462   -1.5289 C   0  0  0  0  0  0  0  0  0  0  0  0
   -2.6078   -0.0582   -1.7299 C   0  0  0  0  0  0  0  0  0  0  0  0
   -3.4681   -0.0313   -0.6295 C   0  0  0  0  0  0  0  0  0  0  0  0
   -4.8660   -0.0420   -0.7815 C   0  0  0  0  0  0  0  0  0  0  0  0
    0.7285    0.0073    0.0527 C   0  0  0  0  0  0  0  0  0  0  0  0
    1.2306    0.0461    1.3519 C   0  0  0  0  0  0  0  0  0  0  0  0
    2.6078    0.0582    1.5529 C   0  0  0  0  0  0  0  0  0  0  0  0
    3.4681    0.0312    0.4525 C   0  0  0  0  0  0  0  0  0  0  0  0
    4.8660    0.0420    0.6045 C   0  0  0  0  0  0  0  0  0  0  0  0
    5.6949    0.0144   -0.5148 C   0  0  0  0  0  0  0  0  0  0  0  0
    5.1317   -0.0239   -1.7851 C   0  0  0  0  0  0  0  0  0  0  0  0
    3.7410   -0.0344   -1.9299 C   0  0  0  0  0  0  0  0  0  0  0  0
    2.8911   -0.0075   -0.8321 C   0  0  0  0  0  0  0  0  0  0  0  0
    1.5601   -0.0191   -1.0269 N   0  0  0  0  0  0  0  0  0  0  0  0
  1  2  2  0
  2  3  1  0
  3  4  2  0
  4  5  1  0
  5  6  2  0
  6  7  1  0
  7  8  2  0
  8  9  1  0
  9 10  2  0
  6 11  1  0
 11 12  2  0
 12 13  1  0
 13 14  2  0
 14 15  1  0
 15 16  2  0
 16 17  1  0
 17 18  2  0
 18 19  1  0
 19 20  2  0
  9  4  1  0
 10  1  1  0
 19 14  1  0
 20 11  1  0
M  END
>  <target>  (796) 
-5.4

$$$$

     RDKit          3D

 11 10  0  0  0  0  0  0  0  0999 V2000
   -1.3829   -3.2209   -0.4166 C   0  0  0  0  0  0  0  0  0  0  0  0
   -1.1662   -1.7238   -0.3336 C   0  0  0  0  0  0  0  0  0  0  0  0
    0.0186   -1.3995   -1.0382 O   0  0  0  0  0  0  0  0  0  0  0  0
    0.6119    0.0911   -0.8992 P   0  0  0  0  0  0  0  0  0  0  0  0
    1.7825    0.3896   -1.7814 O   0  0  0  0  0  0  0  0  0  0  0  0
   -0.6687    1.0422   -1.1215 O   0  0  0  0  0  0  0  0  0  0  0  0
   -0.4239    2.4373   -1.1259 C   0  0  0  0  0  0  0  0  0  0  0  0
   -1.7499    3.1624   -1.2251 C   0  0  0  0  0  0  0  0  0  0  0  0
    0.9107    0.2374    0.6784 O   0  0  0  0  0  0  0  0  0  0  0  0
    2.0669   -0.4246    1.1619 C   0  0  0  0  0  0  0  0  0  0  0  0
    2.0918   -0.3153    2.6721 C   0  0  0  0  0  0  0  0  0  0  0  0
  1  2  1  0
  2  3  1  0
  3  4  1  0
  4  5  2  0
  4  6  1  0
  6  7  1  0
  7  8  1  0
  4  9  1  0
  9 10  1  0
 10 11  1  0
M  END
>  <target>  (797) 
0.43

$$$$

     RDKit          3D

 11 12  0  0  0  0  0  0  0  0999 V2000
   -2.0612    1.4089   -0.0549 C   0  0  0  0  0  0  0  0  0  0  0  0
   -1.2313    0.1231   -0.0067 C   0  0  0  0  0  0  0  0  0  0  0  0
   -2.1475   -1.0947   -0.1069 C   0  0  0  0  0  0  0  0  0  0  0  0
   -0.2515    0.0962    1.2142 C   0  0  0  0  0  0  0  0  0  0  0  0
    0.4933   -1.2529    1.3336 C   0  0  0  0  0  0  0  0  0  0  0  0
    1.4301   -1.2534    0.1082 C   0  0  0  0  0  0  0  0  0  0  0  0
    1.2108    0.1476   -0.4887 C   0  0  0  0  0  0  0  0  0  0  0  0
    2.3077    0.6596   -1.3867 C   0  0  0  0  0  0  0  0  0  0  0  0
    0.9097    0.9924    0.7523 C   0  0  0  0  0  0  0  0  0  0  0  0
   -0.1817    0.1226   -1.1163 C   0  0  0  0  0  0  0  0  0  0  0  0
   -0.4208    0.0816   -2.3140 O   0  0  0  0  0  0  0  0  0  0  0  0
  1  2  1  0
  2  3  1  0
  2  4  1  0
  4  5  1  0
  5  6  1  0
  6  7  1  0
  7  8  1  0
  7  9  1  0
  7 10  1  0
 10 11  2  0
  9  4  1  0
 10  2  1  0
M  END
>  <target>  (798) 
-1.85

$$$$

     RDKit          3D

 12 13  0  0  0  0  0  0  0  0999 V2000
    3.0691    1.0983   -0.4110 C   0  0  0  0  0  0  0  0  0  0  0  0
    2.6820   -0.2731   -0.3936 O   0  0  0  0  0  0  0  0  0  0  0  0
    1.3314   -0.4501   -0.1807 C   0  0  0  0  0  0  0  0  0  0  0  0
    0.8580   -1.7483   -0.1470 C   0  0  0  0  0  0  0  0  0  0  0  0
   -0.4469   -2.0274    0.0552 N   0  0  0  0  0  0  0  0  0  0  0  0
   -1.2498   -0.9440    0.2213 C   0  0  0  0  0  0  0  0  0  0  0  0
   -2.6050   -1.0520    0.4373 C   0  0  0  0  0  0  0  0  0  0  0  0
   -3.4487   -0.0123    0.6085 N   0  0  0  0  0  0  0  0  0  0  0  0
   -2.8774    1.1939    0.5559 C   0  0  0  0  0  0  0  0  0  0  0  0
   -1.5783    1.4363    0.3534 N   0  0  0  0  0  0  0  0  0  0  0  0
   -0.7795    0.3825    0.1890 C   0  0  0  0  0  0  0  0  0  0  0  0
    0.5209    0.6175   -0.0139 N   0  0  0  0  0  0  0  0  0  0  0  0
  1  2  1  0
  2  3  1  0
  3  4  2  0
  4  5  1  0
  5  6  2  0
  6  7  1  0
  7  8  2  0
  8  9  1  0
  9 10  2  0
 10 11  1  0
 11 12  2  0
 11  6  1  0
 12  3  1  0
M  END
>  <target>  (799) 
-0.91

$$$$

     RDKit          3D

 16 18  0  0  0  0  0  0  0  0999 V2000
   -1.4702   -2.5594   -1.3726 Cl  0  0  0  0  0  0  0  0  0  0  0  0
   -1.2291   -1.0137   -0.7241 C   0  0  0  0  0  0  0  0  0  0  0  0
   -1.1611    0.1506   -1.3807 C   0  0  0  0  0  0  0  0  0  0  0  0
   -1.2806    0.4153   -3.0487 Cl  0  0  0  0  0  0  0  0  0  0  0  0
   -0.8871    1.2326   -0.3534 C   0  0  0  0  0  0  0  0  0  0  0  0
   -1.2544    2.8808   -0.8349 Cl  0  0  0  0  0  0  0  0  0  0  0  0
    0.5752    1.0462    0.1784 C   0  0  0  0  0  0  0  0  0  0  0  0
    1.6695    0.8018   -0.8117 C   0  0  0  0  0  0  0  0  0  0  0  0
    2.2022   -0.4181   -0.6839 C   0  0  0  0  0  0  0  0  0  0  0  0
    1.5801   -1.2273    0.4085 C   0  0  0  0  0  0  0  0  0  0  0  0
    0.4873   -0.3080    0.9654 C   0  0  0  0  0  0  0  0  0  0  0  0
   -1.0053   -0.7188    0.7478 C   0  0  0  0  0  0  0  0  0  0  0  0
   -1.5570   -1.9426    1.8794 Cl  0  0  0  0  0  0  0  0  0  0  0  0
   -1.7300    0.6669    0.8344 C   0  0  0  0  0  0  0  0  0  0  0  0
   -1.5141    1.5406    2.3947 Cl  0  0  0  0  0  0  0  0  0  0  0  0
   -3.5127    0.6089    0.5399 Cl  0  0  0  0  0  0  0  0  0  0  0  0
  1  2  1  0
  2  3  2  0
  3  4  1  0
  3  5  1  0
  5  6  1  0
  5  7  1  0
  7  8  1  0
  8  9  2  0
  9 10  1  0
 10 11  1  0
 11 12  1  0
 12 13  1  0
 12 14  1  0
 14 15  1  0
 14 16  1  0
 11  7  1  0
 12  2  1  0
 14  5  1  0
M  END
>  <target>  (800) 
-5.64

$$$$

     RDKit          3D

  6  5  0  0  0  0  0  0  0  0999 V2000
   -0.5672   -1.2842   -0.0159 C   0  0  0  0  0  0  0  0  0  0  0  0
    0.0350    0.0541   -0.4177 C   0  0  0  0  0  0  0  0  0  0  0  0
   -0.5959    1.2333    0.3079 C   0  0  0  0  0  0  0  0  0  0  0  0
    1.5137    0.0312   -0.1085 N   0  0  0  0  0  0  0  0  0  0  0  0
    2.2843    0.1634   -1.0679 O   0  0  0  0  0  0  0  0  0  0  0  0
    1.8556   -0.1168    1.0724 O   0  0  0  0  0  0  0  0  0  0  0  0
  1  2  1  0
  2  3  1  0
  2  4  1  0
  4  5  1  0
  4  6  2  0
M  CHG  2   4   1   5  -1
M  END
>  <target>  (801) 
-0.62

$$$$

     RDKit          3D

 13 15  0  0  0  0  0  0  0  0999 V2000
   -3.4425   -0.1131   -0.0418 C   0  0  0  0  0  0  0  0  0  0  0  0
   -3.0114    1.1732    0.2739 C   0  0  0  0  0  0  0  0  0  0  0  0
   -1.6454    1.4684    0.3515 C   0  0  0  0  0  0  0  0  0  0  0  0
   -0.7002    0.4504    0.1070 C   0  0  0  0  0  0  0  0  0  0  0  0
   -1.1641   -0.8266   -0.2065 C   0  0  0  0  0  0  0  0  0  0  0  0
   -2.5263   -1.1399   -0.2885 C   0  0  0  0  0  0  0  0  0  0  0  0
   -0.0580   -1.6212   -0.3958 N   0  0  0  0  0  0  0  0  0  0  0  0
    1.1021   -0.9053   -0.2163 C   0  0  0  0  0  0  0  0  0  0  0  0
    2.4385   -1.3123   -0.3102 C   0  0  0  0  0  0  0  0  0  0  0  0
    3.4258   -0.3517   -0.0717 C   0  0  0  0  0  0  0  0  0  0  0  0
    3.0879    0.9613    0.2473 C   0  0  0  0  0  0  0  0  0  0  0  0
    1.7464    1.3505    0.3367 C   0  0  0  0  0  0  0  0  0  0  0  0
    0.7307    0.4007    0.1008 C   0  0  0  0  0  0  0  0  0  0  0  0
  1  2  2  0
  2  3  1  0
  3  4  2  0
  4  5  1  0
  5  6  2  0
  5  7  1  0
  7  8  1  0
  8  9  2  0
  9 10  1  0
 10 11  2  0
 11 12  1  0
 12 13  2  0
  6  1  1  0
 13  4  1  0
 13  8  1  0
M  END
>  <target>  (802) 
-5.27

$$$$

     RDKit          3D

  8  7  0  0  0  0  0  0  0  0999 V2000
   -2.6871    1.0352    0.1935 O   0  0  0  0  0  0  0  0  0  0  0  0
   -1.5344    0.5367   -0.4907 C   0  0  0  0  0  0  0  0  0  0  0  0
   -0.3293    0.6955    0.4369 C   0  0  0  0  0  0  0  0  0  0  0  0
   -0.5697   -0.0376    1.6520 O   0  0  0  0  0  0  0  0  0  0  0  0
    0.9949    0.2228   -0.1742 C   0  0  0  0  0  0  0  0  0  0  0  0
    2.0490    0.4390    0.7876 O   0  0  0  0  0  0  0  0  0  0  0  0
    1.0259   -1.2645   -0.5416 C   0  0  0  0  0  0  0  0  0  0  0  0
    2.3049   -1.5817   -1.0960 O   0  0  0  0  0  0  0  0  0  0  0  0
  1  2  1  0
  2  3  1  0
  3  4  1  0
  3  5  1  0
  5  6  1  0
  5  7  1  0
  7  8  1  0
M  END
>  <target>  (803) 
0.7

$$$$

     RDKit          3D

 13 13  0  0  0  0  0  0  0  0999 V2000
   -3.7026    1.2738   -0.3029 C   0  0  0  0  0  0  0  0  0  0  0  0
   -3.5821    0.4750    0.9873 C   0  0  0  0  0  0  0  0  0  0  0  0
   -2.6672   -0.7361    0.8363 C   0  0  0  0  0  0  0  0  0  0  0  0
   -1.3399   -0.2842    0.5389 O   0  0  0  0  0  0  0  0  0  0  0  0
   -0.4358   -1.2810    0.3703 C   0  0  0  0  0  0  0  0  0  0  0  0
   -0.6675   -2.4768    0.4544 O   0  0  0  0  0  0  0  0  0  0  0  0
    0.9077   -0.7220    0.0587 C   0  0  0  0  0  0  0  0  0  0  0  0
    1.1488    0.6537   -0.0341 C   0  0  0  0  0  0  0  0  0  0  0  0
    2.4341    1.1233   -0.3285 C   0  0  0  0  0  0  0  0  0  0  0  0
    3.4832    0.2340   -0.5748 C   0  0  0  0  0  0  0  0  0  0  0  0
    4.7857    0.7122   -0.7478 N   0  0  0  0  0  0  0  0  0  0  0  0
    3.2506   -1.1348   -0.4227 C   0  0  0  0  0  0  0  0  0  0  0  0
    1.9695   -1.6141   -0.1296 C   0  0  0  0  0  0  0  0  0  0  0  0
  1  2  1  0
  2  3  1  0
  3  4  1  0
  4  5  1  0
  5  6  2  0
  5  7  1  0
  7  8  2  0
  8  9  1  0
  9 10  2  0
 10 11  1  0
 10 12  1  0
 12 13  2  0
 13  7  1  0
M  END
>  <target>  (804) 
-2.452

$$$$

     RDKit          3D

 14 13  0  0  0  0  0  0  0  0999 V2000
    4.8467    0.0823   -0.6246 C   0  0  0  0  0  0  0  0  0  0  0  0
    3.4505   -0.1653   -0.3726 N   0  0  0  0  0  0  0  0  0  0  0  0
    2.9637   -0.2377    0.9075 C   0  0  0  0  0  0  0  0  0  0  0  0
    3.6267   -0.0707    1.9219 O   0  0  0  0  0  0  0  0  0  0  0  0
    1.5470   -0.6539    0.9929 C   0  0  0  0  0  0  0  0  0  0  0  0
    0.5145   -0.0546    0.3800 C   0  0  0  0  0  0  0  0  0  0  0  0
    0.5983    1.1830   -0.4666 C   0  0  0  0  0  0  0  0  0  0  0  0
   -0.7490   -0.6075    0.5670 O   0  0  0  0  0  0  0  0  0  0  0  0
   -2.1544   -0.0868   -0.0340 P   0  0  0  0  0  0  0  0  0  0  0  0
   -2.1960    0.0979   -1.5202 O   0  0  0  0  0  0  0  0  0  0  0  0
   -3.2180   -1.1591    0.5328 O   0  0  0  0  0  0  0  0  0  0  0  0
   -3.2026   -2.4382   -0.0661 C   0  0  0  0  0  0  0  0  0  0  0  0
   -2.4816    1.2332    0.8305 O   0  0  0  0  0  0  0  0  0  0  0  0
   -3.6714    1.9208    0.5054 C   0  0  0  0  0  0  0  0  0  0  0  0
  1  2  1  0
  2  3  1  0
  3  4  2  0
  3  5  1  0
  5  6  2  3
  6  7  1  0
  6  8  1  0
  8  9  1  0
  9 10  2  0
  9 11  1  0
 11 12  1  0
  9 13  1  0
 13 14  1  0
M  END
>  <target>  (805) 
0.6509999999999999

$$$$

     RDKit          3D

  7  7  0  0  0  0  0  0  0  0999 V2000
    2.4729   -0.3070    0.1900 O   0  0  0  0  0  0  0  0  0  0  0  0
    1.2793   -0.0854    0.0757 C   0  0  0  0  0  0  0  0  0  0  0  0
    0.1802   -1.0718    0.3370 C   0  0  0  0  0  0  0  0  0  0  0  0
   -1.0975   -0.2965    0.0489 C   0  0  0  0  0  0  0  0  0  0  0  0
   -0.6208    1.0676   -0.3527 C   0  0  0  0  0  0  0  0  0  0  0  0
   -1.3353    2.0039   -0.6686 O   0  0  0  0  0  0  0  0  0  0  0  0
    0.7327    1.0929   -0.3082 N   0  0  0  0  0  0  0  0  0  0  0  0
  1  2  2  0
  2  3  1  0
  3  4  1  0
  4  5  1  0
  5  6  2  0
  5  7  1  0
  7  2  1  0
M  END
>  <target>  (806) 
0.3

$$$$

     RDKit          3D

  7  6  0  0  0  0  0  0  0  0999 V2000
    2.4248    0.3016    0.6807 C   0  0  0  0  0  0  0  0  0  0  0  0
    1.5728   -0.6260   -0.1736 C   0  0  0  0  0  0  0  0  0  0  0  0
    0.2723    0.0201   -0.7019 C   0  0  0  0  0  0  0  0  0  0  0  0
   -0.4281   -0.9778   -1.6352 C   0  0  0  0  0  0  0  0  0  0  0  0
   -0.6580    0.5716    0.4166 C   0  0  0  0  0  0  0  0  0  0  0  0
   -1.8636    1.3236   -0.1601 C   0  0  0  0  0  0  0  0  0  0  0  0
   -1.1437   -0.4943    1.4025 C   0  0  0  0  0  0  0  0  0  0  0  0
  1  2  1  0
  2  3  1  0
  3  4  1  0
  3  5  1  0
  5  6  1  0
  5  7  1  0
M  END
>  <target>  (807) 
-4.28

$$$$

     RDKit          3D

 21 21  0  0  0  0  0  0  0  0999 V2000
    2.5793    4.3898    0.6136 C   0  0  0  0  0  0  0  0  0  0  0  0
    2.9656    2.9196    0.5672 C   0  0  0  0  0  0  0  0  0  0  0  0
    1.9609    2.0486   -0.1902 C   0  0  0  0  0  0  0  0  0  0  0  0
    0.5958    1.9613    0.5001 C   0  0  0  0  0  0  0  0  0  0  0  0
   -0.3331    1.0202   -0.2186 C   0  0  0  0  0  0  0  0  0  0  0  0
   -1.2464    1.4289   -1.1772 C   0  0  0  0  0  0  0  0  0  0  0  0
   -1.4076    2.8680   -1.5716 C   0  0  0  0  0  0  0  0  0  0  0  0
   -2.0597    0.5597   -1.8149 N   0  0  0  0  0  0  0  0  0  0  0  0
   -1.9550   -0.7406   -1.5197 C   0  0  0  0  0  0  0  0  0  0  0  0
   -2.7554   -1.6790   -2.1548 N   0  0  0  0  0  0  0  0  0  0  0  0
   -4.0943   -1.2179   -2.4663 C   0  0  0  0  0  0  0  0  0  0  0  0
   -4.8912   -2.3614   -3.0746 C   0  0  0  0  0  0  0  0  0  0  0  0
   -1.1068   -1.2269   -0.6154 N   0  0  0  0  0  0  0  0  0  0  0  0
   -0.3076   -0.3473    0.0040 C   0  0  0  0  0  0  0  0  0  0  0  0
    0.5682   -0.8122    0.9586 O   0  0  0  0  0  0  0  0  0  0  0  0
    0.9507   -2.3899    1.0029 S   0  0  0  0  0  0  0  0  0  0  0  0
    1.6249   -2.7580   -0.2255 O   0  0  0  0  0  0  0  0  0  0  0  0
   -0.1646   -3.1577    1.5210 O   0  0  0  0  0  0  0  0  0  0  0  0
    2.1554   -2.4486    2.2347 N   0  0  0  0  0  0  0  0  0  0  0  0
    2.8575   -3.7493    2.2883 C   0  0  0  0  0  0  0  0  0  0  0  0
    1.6684   -2.0306    3.5653 C   0  0  0  0  0  0  0  0  0  0  0  0
  1  2  1  0
  2  3  1  0
  3  4  1  0
  4  5  1  0
  5  6  2  0
  6  7  1  0
  6  8  1  0
  8  9  2  0
  9 10  1  0
 10 11  1  0
 11 12  1  0
  9 13  1  0
 13 14  2  0
 14 15  1  0
 15 16  1  0
 16 17  2  0
 16 18  2  0
 16 19  1  0
 19 20  1  0
 19 21  1  0
 14  5  1  0
M  END
>  <target>  (808) 
-4.16

$$$$

     RDKit          3D

 19 21  0  0  0  0  0  0  0  0999 V2000
   -3.0448   -1.2099   -1.3480 C   0  0  0  0  0  0  0  0  0  0  0  0
   -2.2081   -1.3277   -0.0739 C   0  0  0  0  0  0  0  0  0  0  0  0
   -0.9290   -0.6042   -0.2019 N   0  0  0  0  0  0  0  0  0  0  0  0
    0.0854   -1.1011    0.6612 C   0  0  0  0  0  0  0  0  0  0  0  0
   -0.2988   -1.9590    1.6527 N   0  0  0  0  0  0  0  0  0  0  0  0
    0.6171   -2.4268    2.5191 C   0  0  0  0  0  0  0  0  0  0  0  0
    1.9474   -2.0934    2.4597 C   0  0  0  0  0  0  0  0  0  0  0  0
    2.3585   -1.2406    1.4409 C   0  0  0  0  0  0  0  0  0  0  0  0
    1.4448   -0.7161    0.5030 C   0  0  0  0  0  0  0  0  0  0  0  0
    1.9474    0.0877   -0.6047 N   0  0  0  0  0  0  0  0  0  0  0  0
    3.3739   -0.0746   -0.9348 C   0  0  0  0  0  0  0  0  0  0  0  0
    1.1250    0.8957   -1.4170 C   0  0  0  0  0  0  0  0  0  0  0  0
    1.4220    1.2209   -3.0581 S   0  0  0  0  0  0  0  0  0  0  0  0
   -0.0300    1.5638   -0.7676 C   0  0  0  0  0  0  0  0  0  0  0  0
   -0.1173    2.9634   -0.7475 C   0  0  0  0  0  0  0  0  0  0  0  0
   -1.2554    3.5679   -0.2324 C   0  0  0  0  0  0  0  0  0  0  0  0
   -2.2653    2.7482    0.2317 C   0  0  0  0  0  0  0  0  0  0  0  0
   -2.1989    1.3984    0.2285 N   0  0  0  0  0  0  0  0  0  0  0  0
   -1.0753    0.8021   -0.2551 C   0  0  0  0  0  0  0  0  0  0  0  0
  1  2  1  0
  2  3  1  0
  3  4  1  0
  4  5  2  0
  5  6  1  0
  6  7  2  0
  7  8  1  0
  8  9  2  0
  9 10  1  0
 10 11  1  0
 10 12  1  0
 12 13  2  0
 12 14  1  0
 14 15  2  0
 15 16  1  0
 16 17  2  0
 17 18  1  0
 18 19  2  0
  9  4  1  0
 19  3  1  0
 19 14  1  0
M  END
>  <target>  (809) 
-4.6339999999999995

$$$$

     RDKit          3D

 18 20  0  0  0  0  0  0  0  0999 V2000
    1.0069    1.2900   -1.2475 O   0  0  0  0  0  0  0  0  0  0  0  0
   -0.0159    1.6114   -0.3902 C   0  0  0  0  0  0  0  0  0  0  0  0
   -0.0345    2.9448    0.0443 C   0  0  0  0  0  0  0  0  0  0  0  0
   -1.0706    3.4057    0.8478 C   0  0  0  0  0  0  0  0  0  0  0  0
   -2.0965    2.5380    1.1989 C   0  0  0  0  0  0  0  0  0  0  0  0
   -2.0849    1.2132    0.7440 C   0  0  0  0  0  0  0  0  0  0  0  0
   -1.0410    0.7142   -0.0569 C   0  0  0  0  0  0  0  0  0  0  0  0
   -1.0738   -0.6353   -0.5425 N   0  0  0  0  0  0  0  0  0  0  0  0
   -2.3741   -1.2990   -0.7029 C   0  0  0  0  0  0  0  0  0  0  0  0
   -2.7031   -2.2381    0.4516 C   0  0  0  0  0  0  0  0  0  0  0  0
    0.0478   -1.4179   -0.8682 C   0  0  0  0  0  0  0  0  0  0  0  0
   -0.0571   -2.5529   -1.3432 O   0  0  0  0  0  0  0  0  0  0  0  0
    1.4192   -0.9725   -0.5460 C   0  0  0  0  0  0  0  0  0  0  0  0
    2.3420   -1.9272   -0.0899 C   0  0  0  0  0  0  0  0  0  0  0  0
    3.6654   -1.5651    0.1719 C   0  0  0  0  0  0  0  0  0  0  0  0
    4.0804   -0.2515   -0.0384 C   0  0  0  0  0  0  0  0  0  0  0  0
    3.1720    0.6966   -0.5081 C   0  0  0  0  0  0  0  0  0  0  0  0
    1.8432    0.3332   -0.7474 C   0  0  0  0  0  0  0  0  0  0  0  0
  1  2  1  0
  2  3  2  0
  3  4  1  0
  4  5  2  0
  5  6  1  0
  6  7  2  0
  7  8  1  0
  8  9  1  0
  9 10  1  0
  8 11  1  0
 11 12  2  0
 11 13  1  0
 13 14  2  0
 14 15  1  0
 15 16  2  0
 16 17  1  0
 17 18  2  0
  7  2  1  0
 18  1  1  0
 18 13  1  0
M  END
>  <target>  (810) 
-3.68

$$$$

     RDKit          3D

  6  6  0  0  0  0  0  0  0  0999 V2000
    0.4048   -1.0719    0.4792 C   0  0  0  0  0  0  0  0  0  0  0  0
    1.3711   -0.0171   -0.0493 C   0  0  0  0  0  0  0  0  0  0  0  0
    0.7250    1.3622   -0.0338 C   0  0  0  0  0  0  0  0  0  0  0  0
   -0.4992    1.3559   -0.7682 O   0  0  0  0  0  0  0  0  0  0  0  0
   -1.4587    0.4598   -0.2075 C   0  0  0  0  0  0  0  0  0  0  0  0
   -0.9399   -0.9721   -0.2331 C   0  0  0  0  0  0  0  0  0  0  0  0
  1  2  1  0
  2  3  1  0
  3  4  1  0
  4  5  1  0
  5  6  1  0
  6  1  1  0
M  END
>  <target>  (811) 
-0.03

$$$$

     RDKit          3D

  7  6  0  0  0  0  0  0  0  0999 V2000
   -3.1120    0.0444    0.2841 C   0  0  0  0  0  0  0  0  0  0  0  0
   -1.7272    0.6400    0.0866 C   0  0  0  0  0  0  0  0  0  0  0  0
   -0.6304   -0.3539    0.4681 C   0  0  0  0  0  0  0  0  0  0  0  0
    0.7612    0.2489    0.2680 C   0  0  0  0  0  0  0  0  0  0  0  0
    1.8584   -0.7447    0.6494 C   0  0  0  0  0  0  0  0  0  0  0  0
    3.1936   -0.1601    0.4552 C   0  0  0  0  0  0  0  0  0  0  0  0
    4.2854    0.3144    0.2977 C   0  0  0  0  0  0  0  0  0  0  0  0
  1  2  1  0
  2  3  1  0
  3  4  1  0
  4  5  1  0
  5  6  1  0
  6  7  3  0
M  END
>  <target>  (812) 
-3.01

$$$$

     RDKit          3D

 18 19  0  0  0  0  0  0  0  0999 V2000
   -2.0005   -3.3052   -0.8357 C   0  0  0  0  0  0  0  0  0  0  0  0
   -2.8060   -2.3895   -0.2899 C   0  0  0  0  0  0  0  0  0  0  0  0
   -2.3407   -1.0201   -0.1371 C   0  0  0  0  0  0  0  0  0  0  0  0
   -3.1417   -0.0363    0.4370 C   0  0  0  0  0  0  0  0  0  0  0  0
   -2.6578    1.2692    0.5794 C   0  0  0  0  0  0  0  0  0  0  0  0
   -1.3679    1.6078    0.1486 C   0  0  0  0  0  0  0  0  0  0  0  0
   -0.8185    2.8585    0.2646 O   0  0  0  0  0  0  0  0  0  0  0  0
   -1.5990    3.8691    0.8894 C   0  0  0  0  0  0  0  0  0  0  0  0
   -0.5500    0.6270   -0.4465 C   0  0  0  0  0  0  0  0  0  0  0  0
    0.8585    0.9464   -0.9038 C   0  0  0  0  0  0  0  0  0  0  0  0
    1.8731    0.7271    0.1881 C   0  0  0  0  0  0  0  0  0  0  0  0
    2.8586   -0.1909    0.2461 C   0  0  0  0  0  0  0  0  0  0  0  0
    3.7796   -0.2489    1.4370 C   0  0  0  0  0  0  0  0  0  0  0  0
    3.1471   -1.2288   -0.8037 C   0  0  0  0  0  0  0  0  0  0  0  0
   -1.0596   -0.6778   -0.5697 C   0  0  0  0  0  0  0  0  0  0  0  0
   -0.2315   -1.6656   -1.1535 O   0  0  0  0  0  0  0  0  0  0  0  0
   -0.6420   -2.9814   -1.3007 C   0  0  0  0  0  0  0  0  0  0  0  0
    0.0737   -3.8441   -1.7961 O   0  0  0  0  0  0  0  0  0  0  0  0
  1  2  2  0
  2  3  1  0
  3  4  2  0
  4  5  1  0
  5  6  2  0
  6  7  1  0
  7  8  1  0
  6  9  1  0
  9 10  1  0
 10 11  1  0
 11 12  2  3
 12 13  1  0
 12 14  1  0
  9 15  2  0
 15 16  1  0
 16 17  1  0
 17 18  2  0
 17  1  1  0
 15  3  1  0
M  END
>  <target>  (813) 
-4.314

$$$$

     RDKit          3D

 21 25  0  0  0  0  0  0  0  0999 V2000
    2.4184   -1.5196    0.2833 C   0  0  0  0  0  0  0  0  0  0  0  0
    3.8163   -1.5302    0.2151 C   0  0  0  0  0  0  0  0  0  0  0  0
    4.5103   -0.3849   -0.1608 C   0  0  0  0  0  0  0  0  0  0  0  0
    6.0086   -0.3760   -0.2045 C   0  0  0  0  0  0  0  0  0  0  0  0
    3.7829    0.7749   -0.4411 C   0  0  0  0  0  0  0  0  0  0  0  0
    2.3778    0.7972   -0.3757 C   0  0  0  0  0  0  0  0  0  0  0  0
    1.6511   -0.3644   -0.0097 C   0  0  0  0  0  0  0  0  0  0  0  0
    0.2119   -0.3105    0.0471 C   0  0  0  0  0  0  0  0  0  0  0  0
   -0.6077   -1.4287    0.4037 C   0  0  0  0  0  0  0  0  0  0  0  0
   -2.0134   -1.3506    0.4522 C   0  0  0  0  0  0  0  0  0  0  0  0
   -2.9184   -2.3762    0.7869 C   0  0  0  0  0  0  0  0  0  0  0  0
   -4.3041   -2.1253    0.7857 C   0  0  0  0  0  0  0  0  0  0  0  0
   -4.8081   -0.8586    0.4536 C   0  0  0  0  0  0  0  0  0  0  0  0
   -3.9136    0.1464    0.1252 C   0  0  0  0  0  0  0  0  0  0  0  0
   -4.1830    1.5677   -0.2623 C   0  0  0  0  0  0  0  0  0  0  0  0
   -2.7648    2.1482   -0.4974 C   0  0  0  0  0  0  0  0  0  0  0  0
   -1.8428    0.9898   -0.2168 C   0  0  0  0  0  0  0  0  0  0  0  0
   -2.5678   -0.1188    0.1325 C   0  0  0  0  0  0  0  0  0  0  0  0
   -0.4456    0.9203   -0.2674 C   0  0  0  0  0  0  0  0  0  0  0  0
    0.3106    2.0429   -0.6221 C   0  0  0  0  0  0  0  0  0  0  0  0
    1.6995    1.9808   -0.6748 C   0  0  0  0  0  0  0  0  0  0  0  0
  1  2  2  0
  2  3  1  0
  3  4  1  0
  3  5  2  0
  5  6  1  0
  6  7  2  0
  7  8  1  0
  8  9  2  0
  9 10  1  0
 10 11  2  0
 11 12  1  0
 12 13  2  0
 13 14  1  0
 14 15  1  0
 15 16  1  0
 16 17  1  0
 17 18  1  0
 17 19  2  0
 19 20  1  0
 20 21  2  0
  7  1  1  0
 21  6  1  0
 19  8  1  0
 18 10  1  0
 18 14  2  0
M  END
>  <target>  (814) 
-7.92

$$$$

     RDKit          3D

 11 11  0  0  0  0  0  0  0  0999 V2000
   -3.6157    0.0724   -0.8973 C   0  0  0  0  0  0  0  0  0  0  0  0
   -2.7433   -0.5707    0.1629 C   0  0  0  0  0  0  0  0  0  0  0  0
   -1.3930   -0.1417   -0.0498 O   0  0  0  0  0  0  0  0  0  0  0  0
   -0.5023   -0.6493    0.8388 C   0  0  0  0  0  0  0  0  0  0  0  0
   -0.7661   -1.4079    1.7585 O   0  0  0  0  0  0  0  0  0  0  0  0
    0.8710   -0.1551    0.5470 C   0  0  0  0  0  0  0  0  0  0  0  0
    1.1478    0.7160   -0.5159 C   0  0  0  0  0  0  0  0  0  0  0  0
    2.4561    1.1496   -0.7453 C   0  0  0  0  0  0  0  0  0  0  0  0
    3.4917    0.7171    0.0825 C   0  0  0  0  0  0  0  0  0  0  0  0
    3.2243   -0.1492    1.1415 C   0  0  0  0  0  0  0  0  0  0  0  0
    1.9182   -0.5848    1.3741 C   0  0  0  0  0  0  0  0  0  0  0  0
  1  2  1  0
  2  3  1  0
  3  4  1  0
  4  5  2  0
  4  6  1  0
  6  7  2  0
  7  8  1  0
  8  9  2  0
  9 10  1  0
 10 11  2  0
 11  6  1  0
M  END
>  <target>  (815) 
-2.32

$$$$

     RDKit          3D

  5  4  0  0  0  0  0  0  0  0999 V2000
    1.7998   -0.5927    1.5635 Cl  0  0  0  0  0  0  0  0  0  0  0  0
    1.0423   -1.0370    0.0148 C   0  0  0  0  0  0  0  0  0  0  0  0
   -0.1447   -0.1437   -0.3713 C   0  0  0  0  0  0  0  0  0  0  0  0
   -1.2963   -0.2391    0.6307 C   0  0  0  0  0  0  0  0  0  0  0  0
    0.2667    1.3147   -0.5795 C   0  0  0  0  0  0  0  0  0  0  0  0
  1  2  1  0
  2  3  1  0
  3  4  1  0
  3  5  1  0
M  END
>  <target>  (816) 
-2.0

$$$$

     RDKit          3D

 22 25  0  0  0  0  0  0  0  0999 V2000
   -2.1523   -0.5442   -2.0918 C   0  0  0  0  0  0  0  0  0  0  0  0
   -2.0730   -0.4170   -0.5572 C   0  0  0  0  0  0  0  0  0  0  0  0
   -1.3245   -1.6442    0.0264 C   0  0  0  0  0  0  0  0  0  0  0  0
    0.1862   -1.6319   -0.2231 C   0  0  0  0  0  0  0  0  0  0  0  0
    0.8454   -0.3455    0.3091 C   0  0  0  0  0  0  0  0  0  0  0  0
    0.1597    0.8765   -0.3466 C   0  0  0  0  0  0  0  0  0  0  0  0
    0.8252    2.1646    0.1446 C   0  0  0  0  0  0  0  0  0  0  0  0
    2.2680    2.2156   -0.3449 C   0  0  0  0  0  0  0  0  0  0  0  0
    3.0218    0.9256   -0.1294 C   0  0  0  0  0  0  0  0  0  0  0  0
    4.4222    0.9554   -0.2551 C   0  0  0  0  0  0  0  0  0  0  0  0
    5.1641   -0.2046   -0.0744 C   0  0  0  0  0  0  0  0  0  0  0  0
    6.5219   -0.2061   -0.1855 O   0  0  0  0  0  0  0  0  0  0  0  0
    4.5385   -1.4005    0.2333 C   0  0  0  0  0  0  0  0  0  0  0  0
    3.1485   -1.4434    0.3499 C   0  0  0  0  0  0  0  0  0  0  0  0
    2.3634   -0.2943    0.1442 C   0  0  0  0  0  0  0  0  0  0  0  0
   -1.3651    0.8980   -0.1430 C   0  0  0  0  0  0  0  0  0  0  0  0
   -1.8415    1.1551    1.2979 C   0  0  0  0  0  0  0  0  0  0  0  0
   -3.1742    0.4115    1.4566 C   0  0  0  0  0  0  0  0  0  0  0  0
   -3.4765   -0.2071    0.0844 C   0  0  0  0  0  0  0  0  0  0  0  0
   -4.2142    0.7617   -0.6662 O   0  0  0  0  0  0  0  0  0  0  0  0
   -4.2894   -1.4290    0.1897 C   0  0  0  0  0  0  0  0  0  0  0  0
   -4.9641   -2.4196    0.2720 C   0  0  0  0  0  0  0  0  0  0  0  0
  1  2  1  0
  2  3  1  0
  3  4  1  0
  4  5  1  0
  5  6  1  0
  6  7  1  0
  7  8  1  0
  8  9  1  0
  9 10  2  0
 10 11  1  0
 11 12  1  0
 11 13  2  0
 13 14  1  0
 14 15  2  0
  6 16  1  0
 16 17  1  0
 17 18  1  0
 18 19  1  0
 19 20  1  0
 19 21  1  0
 21 22  3  0
 15  5  1  0
 15  9  1  0
 16  2  1  0
 19  2  1  0
M  END
>  <target>  (817) 
-4.3

$$$$

     RDKit          3D

 15 14  0  0  0  0  0  0  0  0999 V2000
   -4.9196    2.4333   -0.0168 C   0  0  0  0  0  0  0  0  0  0  0  0
   -3.9425    1.5718   -0.8009 C   0  0  0  0  0  0  0  0  0  0  0  0
   -3.5748    0.3013   -0.0333 C   0  0  0  0  0  0  0  0  0  0  0  0
   -2.5888   -0.5588   -0.8264 C   0  0  0  0  0  0  0  0  0  0  0  0
   -2.2666   -1.8949   -0.1507 C   0  0  0  0  0  0  0  0  0  0  0  0
   -1.6270   -1.8011    1.2385 C   0  0  0  0  0  0  0  0  0  0  0  0
   -0.3376   -0.9790    1.3231 C   0  0  0  0  0  0  0  0  0  0  0  0
    0.7893   -1.5239    0.4432 C   0  0  0  0  0  0  0  0  0  0  0  0
    2.0824   -0.7298    0.6450 C   0  0  0  0  0  0  0  0  0  0  0  0
    3.2098   -1.2713   -0.2389 C   0  0  0  0  0  0  0  0  0  0  0  0
    4.5268   -0.5319   -0.0225 C   0  0  0  0  0  0  0  0  0  0  0  0
    4.4753    0.8940   -0.5104 C   0  0  0  0  0  0  0  0  0  0  0  0
    4.4735    1.8713    0.2256 O   0  0  0  0  0  0  0  0  0  0  0  0
    4.4337    0.9322   -1.8706 O   0  0  0  0  0  0  0  0  0  0  0  0
    4.3766    2.2525   -2.4115 C   0  0  0  0  0  0  0  0  0  0  0  0
  1  2  1  0
  2  3  1  0
  3  4  1  0
  4  5  1  0
  5  6  1  0
  6  7  1  0
  7  8  1  0
  8  9  1  0
  9 10  1  0
 10 11  1  0
 11 12  1  0
 12 13  2  0
 12 14  1  0
 14 15  1  0
M  END
>  <target>  (818) 
-4.69

$$$$

     RDKit          3D

  7  6  0  0  0  0  0  0  0  0999 V2000
   -2.7350   -0.2602    1.0481 C   0  0  0  0  0  0  0  0  0  0  0  0
   -1.6939    0.8022    0.7261 C   0  0  0  0  0  0  0  0  0  0  0  0
   -1.3647    0.9233   -0.7616 C   0  0  0  0  0  0  0  0  0  0  0  0
   -0.7086   -0.5840   -1.5578 S   0  0  0  0  0  0  0  0  0  0  0  0
    0.7933   -0.8961   -0.5695 C   0  0  0  0  0  0  0  0  0  0  0  0
    1.8295    0.2172   -0.6913 C   0  0  0  0  0  0  0  0  0  0  0  0
    3.1132   -0.1494    0.0403 C   0  0  0  0  0  0  0  0  0  0  0  0
  1  2  1  0
  2  3  1  0
  3  4  1  0
  4  5  1  0
  5  6  1  0
  6  7  1  0
M  END
>  <target>  (819) 
-2.58

$$$$

     RDKit          3D

 18 21  0  0  0  0  0  0  0  0999 V2000
   -4.9024   -0.4296   -0.3357 C   0  0  0  0  0  0  0  0  0  0  0  0
   -4.7034   -1.3460    0.6921 C   0  0  0  0  0  0  0  0  0  0  0  0
   -3.4148   -1.5851    1.1725 C   0  0  0  0  0  0  0  0  0  0  0  0
   -2.3085   -0.9100    0.6304 C   0  0  0  0  0  0  0  0  0  0  0  0
   -1.0056   -1.1395    1.1029 C   0  0  0  0  0  0  0  0  0  0  0  0
    0.1008   -0.4640    0.5603 C   0  0  0  0  0  0  0  0  0  0  0  0
    1.4038   -0.6942    1.0335 C   0  0  0  0  0  0  0  0  0  0  0  0
    2.5103   -0.0193    0.4916 C   0  0  0  0  0  0  0  0  0  0  0  0
    3.8131   -0.2490    0.9643 C   0  0  0  0  0  0  0  0  0  0  0  0
    4.9024    0.4296    0.4155 C   0  0  0  0  0  0  0  0  0  0  0  0
    4.7034    1.3460   -0.6123 C   0  0  0  0  0  0  0  0  0  0  0  0
    3.4148    1.5851   -1.0927 C   0  0  0  0  0  0  0  0  0  0  0  0
    2.3085    0.9100   -0.5506 C   0  0  0  0  0  0  0  0  0  0  0  0
    1.0056    1.1395   -1.0231 C   0  0  0  0  0  0  0  0  0  0  0  0
   -0.1008    0.4640   -0.4805 C   0  0  0  0  0  0  0  0  0  0  0  0
   -1.4038    0.6942   -0.9537 C   0  0  0  0  0  0  0  0  0  0  0  0
   -2.5103    0.0193   -0.4118 C   0  0  0  0  0  0  0  0  0  0  0  0
   -3.8131    0.2490   -0.8845 C   0  0  0  0  0  0  0  0  0  0  0  0
  1  2  2  0
  2  3  1  0
  3  4  2  0
  4  5  1  0
  5  6  2  0
  6  7  1  0
  7  8  2  0
  8  9  1  0
  9 10  2  0
 10 11  1  0
 11 12  2  0
 12 13  1  0
 13 14  2  0
 14 15  1  0
 15 16  2  0
 16 17  1  0
 17 18  2  0
 18  1  1  0
 17  4  1  0
 15  6  1  0
 13  8  1  0
M  END
>  <target>  (820) 
-8.6

$$$$

     RDKit          3D

  6  5  0  0  0  0  0  0  0  0999 V2000
    2.5098    0.5490   -0.1649 C   0  0  0  0  0  0  0  0  0  0  0  0
    1.3318   -0.1211    0.5241 C   0  0  0  0  0  0  0  0  0  0  0  0
    0.0139    0.2011   -0.1799 C   0  0  0  0  0  0  0  0  0  0  0  0
   -1.1687   -0.4744    0.5158 C   0  0  0  0  0  0  0  0  0  0  0  0
   -2.4745   -0.1496   -0.1896 C   0  0  0  0  0  0  0  0  0  0  0  0
   -3.9531   -1.0262    0.7243 Br  0  0  0  0  0  0  0  0  0  0  0  0
  1  2  1  0
  2  3  1  0
  3  4  1  0
  4  5  1  0
  5  6  1  0
M  END
>  <target>  (821) 
-3.08

$$$$

     RDKit          3D

  7  6  0  0  0  0  0  0  0  0999 V2000
   -3.4500   -0.4054   -0.5790 C   0  0  0  0  0  0  0  0  0  0  0  0
   -2.3370    0.2884    0.1901 C   0  0  0  0  0  0  0  0  0  0  0  0
   -0.9676    0.0043   -0.4276 C   0  0  0  0  0  0  0  0  0  0  0  0
    0.1482    0.7052    0.3499 C   0  0  0  0  0  0  0  0  0  0  0  0
    1.4926    0.4367   -0.2648 C   0  0  0  0  0  0  0  0  0  0  0  0
    2.4907   -0.2010    0.3661 C   0  0  0  0  0  0  0  0  0  0  0  0
    3.8298   -0.4634   -0.2421 C   0  0  0  0  0  0  0  0  0  0  0  0
  1  2  1  0
  2  3  1  0
  3  4  1  0
  4  5  1  0
  5  6  2  0
  6  7  1  0
M  END
>  <target>  (822) 
-3.82

$$$$

     RDKit          3D

 12 12  0  0  0  0  0  0  0  0999 V2000
   -1.6956   -1.1913    1.3794 C   0  0  0  0  0  0  0  0  0  0  0  0
   -0.8882    0.0485    1.2248 C   0  0  0  0  0  0  0  0  0  0  0  0
   -0.7092    0.9498    2.1730 N   0  0  0  0  0  0  0  0  0  0  0  0
    0.0847    1.9222    1.6301 C   0  0  0  0  0  0  0  0  0  0  0  0
    0.3983    1.6077    0.3332 C   0  0  0  0  0  0  0  0  0  0  0  0
    1.2079    2.3560   -0.5647 N   0  0  0  0  0  0  0  0  0  0  0  0
    1.4901    3.5099   -0.2239 O   0  0  0  0  0  0  0  0  0  0  0  0
    1.5798    1.8023   -1.6056 O   0  0  0  0  0  0  0  0  0  0  0  0
   -0.2296    0.4156    0.0606 N   0  0  0  0  0  0  0  0  0  0  0  0
   -0.2902   -0.3072   -1.2027 C   0  0  0  0  0  0  0  0  0  0  0  0
    0.9034   -1.2346   -1.4181 C   0  0  0  0  0  0  0  0  0  0  0  0
    0.7365   -2.4290   -0.6598 O   0  0  0  0  0  0  0  0  0  0  0  0
  1  2  1  0
  2  3  2  0
  3  4  1  0
  4  5  2  0
  5  6  1  0
  6  7  1  0
  6  8  2  0
  5  9  1  0
  9 10  1  0
 10 11  1  0
 11 12  1  0
  9  2  1  0
M  CHG  2   6   1   7  -1
M  END
>  <target>  (823) 
-1.26

$$$$

     RDKit          3D

 10 10  0  0  0  0  0  0  0  0999 V2000
    4.8308    0.0343   -0.0001 C   0  0  0  0  0  0  0  0  0  0  0  0
    3.4545    0.6089    0.2949 C   0  0  0  0  0  0  0  0  0  0  0  0
    2.3448   -0.3685   -0.0918 C   0  0  0  0  0  0  0  0  0  0  0  0
    0.9616    0.2134    0.2070 C   0  0  0  0  0  0  0  0  0  0  0  0
   -0.1484   -0.7663   -0.1821 C   0  0  0  0  0  0  0  0  0  0  0  0
   -1.5426   -0.2420    0.1661 C   0  0  0  0  0  0  0  0  0  0  0  0
   -2.6477   -1.2307   -0.1996 C   0  0  0  0  0  0  0  0  0  0  0  0
   -3.9136   -0.3866   -0.1446 C   0  0  0  0  0  0  0  0  0  0  0  0
   -3.4839    1.0282   -0.5307 C   0  0  0  0  0  0  0  0  0  0  0  0
   -1.9584    1.0087   -0.6076 C   0  0  0  0  0  0  0  0  0  0  0  0
  1  2  1  0
  2  3  1  0
  3  4  1  0
  4  5  1  0
  5  6  1  0
  6  7  1  0
  7  8  1  0
  8  9  1  0
  9 10  1  0
 10  6  1  0
M  END
>  <target>  (824) 
-6.08

$$$$

     RDKit          3D

 18 19  0  0  0  0  0  0  0  0999 V2000
   -4.1335    1.9016    0.5067 Cl  0  0  0  0  0  0  0  0  0  0  0  0
   -3.0257    0.6448    0.1176 C   0  0  0  0  0  0  0  0  0  0  0  0
   -3.5045   -0.5883   -0.3165 C   0  0  0  0  0  0  0  0  0  0  0  0
   -2.6046   -1.6067   -0.6317 C   0  0  0  0  0  0  0  0  0  0  0  0
   -1.2283   -1.3885   -0.5118 C   0  0  0  0  0  0  0  0  0  0  0  0
   -0.1676   -2.6933   -0.9187 Cl  0  0  0  0  0  0  0  0  0  0  0  0
   -0.7299   -0.1448   -0.0735 C   0  0  0  0  0  0  0  0  0  0  0  0
   -1.6538    0.8702    0.2398 C   0  0  0  0  0  0  0  0  0  0  0  0
    0.7194    0.1225    0.0656 C   0  0  0  0  0  0  0  0  0  0  0  0
    1.3932   -0.1427    1.2837 C   0  0  0  0  0  0  0  0  0  0  0  0
    0.5040   -0.7682    2.6442 Cl  0  0  0  0  0  0  0  0  0  0  0  0
    2.7716    0.0980    1.4018 C   0  0  0  0  0  0  0  0  0  0  0  0
    3.6498   -0.2039    2.8613 Cl  0  0  0  0  0  0  0  0  0  0  0  0
    3.4930    0.6026    0.3209 C   0  0  0  0  0  0  0  0  0  0  0  0
    2.8480    0.8733   -0.8849 C   0  0  0  0  0  0  0  0  0  0  0  0
    3.8179    1.5025   -2.1717 Cl  0  0  0  0  0  0  0  0  0  0  0  0
    1.4701    0.6384   -1.0200 C   0  0  0  0  0  0  0  0  0  0  0  0
    0.6767    0.9864   -2.5308 Cl  0  0  0  0  0  0  0  0  0  0  0  0
  1  2  1  0
  2  3  2  0
  3  4  1  0
  4  5  2  0
  5  6  1  0
  5  7  1  0
  7  8  2  0
  7  9  1  0
  9 10  2  0
 10 11  1  0
 10 12  1  0
 12 13  1  0
 12 14  2  0
 14 15  1  0
 15 16  1  0
 15 17  2  0
 17 18  1  0
  8  2  1  0
 17  9  1  0
M  END
>  <target>  (825) 
-7.42

$$$$

     RDKit          3D

 14 14  0  0  0  0  0  0  0  0999 V2000
    1.6410    1.3956    1.2763 O   0  0  0  0  0  0  0  0  0  0  0  0
    1.3871    0.3868    0.6230 C   0  0  0  0  0  0  0  0  0  0  0  0
    2.2950   -0.6344    0.5626 N   0  0  0  0  0  0  0  0  0  0  0  0
    2.4100   -1.4641   -0.5078 C   0  0  0  0  0  0  0  0  0  0  0  0
    3.4705   -2.0189   -0.7759 O   0  0  0  0  0  0  0  0  0  0  0  0
    1.3263   -1.5758   -1.3205 N   0  0  0  0  0  0  0  0  0  0  0  0
    0.3479   -0.6233   -1.3973 C   0  0  0  0  0  0  0  0  0  0  0  0
   -0.2734   -0.4650   -2.4451 O   0  0  0  0  0  0  0  0  0  0  0  0
    0.0639    0.1446   -0.1052 C   0  0  0  0  0  0  0  0  0  0  0  0
   -0.6424    1.4916   -0.4153 C   0  0  0  0  0  0  0  0  0  0  0  0
    0.1522    2.4511   -1.3037 C   0  0  0  0  0  0  0  0  0  0  0  0
   -0.8158   -0.7916    0.8154 C   0  0  0  0  0  0  0  0  0  0  0  0
   -1.1116   -0.1928    2.2003 C   0  0  0  0  0  0  0  0  0  0  0  0
   -2.1524   -1.2043    0.1773 C   0  0  0  0  0  0  0  0  0  0  0  0
  1  2  2  0
  2  3  1  0
  3  4  1  0
  4  5  2  0
  4  6  1  0
  6  7  1  0
  7  8  2  0
  7  9  1  0
  9 10  1  0
 10 11  1  0
  9 12  1  0
 12 13  1  0
 12 14  1  0
  9  2  1  0
M  END
>  <target>  (826) 
-2.148

$$$$

     RDKit          3D

  5  4  0  0  0  0  0  0  0  0999 V2000
   -0.8128    0.0033    0.1995 C   0  0  0  0  0  0  0  0  0  0  0  0
    0.6660   -0.0027   -0.1635 C   0  0  0  0  0  0  0  0  0  0  0  0
    1.0365    1.3987   -1.2055 Cl  0  0  0  0  0  0  0  0  0  0  0  0
    1.0657   -1.5069   -1.0380 Cl  0  0  0  0  0  0  0  0  0  0  0  0
    1.6516    0.0928    1.3219 Cl  0  0  0  0  0  0  0  0  0  0  0  0
  1  2  1  0
  2  3  1  0
  2  4  1  0
  2  5  1  0
M  END
>  <target>  (827) 
-2.0

$$$$

     RDKit          3D

 14 14  0  0  0  0  0  0  0  0999 V2000
   -3.2395   -1.0222    0.6287 C   0  0  0  0  0  0  0  0  0  0  0  0
   -2.5835    0.2295    0.4167 O   0  0  0  0  0  0  0  0  0  0  0  0
   -2.1672    0.2822   -0.9455 N   0  0  0  0  0  0  0  0  0  0  0  0
   -3.0215    1.1710   -1.7076 C   0  0  0  0  0  0  0  0  0  0  0  0
   -0.7796    0.4029   -1.1261 C   0  0  0  0  0  0  0  0  0  0  0  0
   -0.2931    0.7890   -2.1853 O   0  0  0  0  0  0  0  0  0  0  0  0
   -0.0719    0.0183   -0.0049 N   0  0  0  0  0  0  0  0  0  0  0  0
    1.3176   -0.0541    0.1778 C   0  0  0  0  0  0  0  0  0  0  0  0
    2.2480    0.1544   -0.8430 C   0  0  0  0  0  0  0  0  0  0  0  0
    3.6199    0.0583   -0.5827 C   0  0  0  0  0  0  0  0  0  0  0  0
    4.0643   -0.2493    0.6999 C   0  0  0  0  0  0  0  0  0  0  0  0
    5.7503   -0.3678    1.0188 Cl  0  0  0  0  0  0  0  0  0  0  0  0
    3.1485   -0.4635    1.7259 C   0  0  0  0  0  0  0  0  0  0  0  0
    1.7784   -0.3671    1.4635 C   0  0  0  0  0  0  0  0  0  0  0  0
  1  2  1  0
  2  3  1  0
  3  4  1  0
  3  5  1  0
  5  6  2  0
  5  7  1  0
  7  8  1  0
  8  9  2  0
  9 10  1  0
 10 11  2  0
 11 12  1  0
 11 13  1  0
 13 14  2  0
 14  8  1  0
M  END
>  <target>  (828) 
-2.57

$$$$

     RDKit          3D

 14 15  0  0  0  0  0  0  0  0999 V2000
   -4.1814    0.8178    0.8480 O   0  0  0  0  0  0  0  0  0  0  0  0
   -3.0023    0.6638    0.5474 C   0  0  0  0  0  0  0  0  0  0  0  0
   -2.5194    1.0690   -0.6584 N   0  0  0  0  0  0  0  0  0  0  0  0
   -1.4575    0.4574   -1.2698 C   0  0  0  0  0  0  0  0  0  0  0  0
   -1.4062    0.3852   -2.4941 O   0  0  0  0  0  0  0  0  0  0  0  0
   -0.3762   -0.0630   -0.3253 C   0  0  0  0  0  0  0  0  0  0  0  0
    0.4395    1.1633    0.1536 C   0  0  0  0  0  0  0  0  0  0  0  0
    1.7171    0.7837    0.9000 C   0  0  0  0  0  0  0  0  0  0  0  0
    2.5937   -0.1453    0.0720 C   0  0  0  0  0  0  0  0  0  0  0  0
    1.8355   -1.3995   -0.3394 C   0  0  0  0  0  0  0  0  0  0  0  0
    0.5322   -1.0673   -1.0682 C   0  0  0  0  0  0  0  0  0  0  0  0
   -1.0733   -0.7073    0.8702 C   0  0  0  0  0  0  0  0  0  0  0  0
   -0.7266   -1.7588    1.3988 O   0  0  0  0  0  0  0  0  0  0  0  0
   -2.1462   -0.0122    1.3605 N   0  0  0  0  0  0  0  0  0  0  0  0
  1  2  2  0
  2  3  1  0
  3  4  1  0
  4  5  2  0
  4  6  1  0
  6  7  1  0
  7  8  1  0
  8  9  1  0
  9 10  1  0
 10 11  1  0
  6 12  1  0
 12 13  2  0
 12 14  1  0
 11  6  1  0
 14  2  1  0
M  END
>  <target>  (829) 
-3.06

$$$$

     RDKit          3D

 15 15  0  0  0  0  0  0  0  0999 V2000
    4.2939   -0.8662   -1.4237 C   0  0  0  0  0  0  0  0  0  0  0  0
    3.3905   -0.2923   -0.4449 N   0  0  0  0  0  0  0  0  0  0  0  0
    3.9954    0.4124    0.6722 C   0  0  0  0  0  0  0  0  0  0  0  0
    2.0428   -0.1750   -0.7651 C   0  0  0  0  0  0  0  0  0  0  0  0
    1.5479   -0.6439   -1.7859 O   0  0  0  0  0  0  0  0  0  0  0  0
    1.3350    0.5302    0.1811 O   0  0  0  0  0  0  0  0  0  0  0  0
   -0.0508    0.6537   -0.0564 C   0  0  0  0  0  0  0  0  0  0  0  0
   -0.5761    1.8666   -0.2651 C   0  0  0  0  0  0  0  0  0  0  0  0
   -2.0328    2.0196   -0.4739 C   0  0  0  0  0  0  0  0  0  0  0  0
   -2.4939    3.1401   -0.6807 O   0  0  0  0  0  0  0  0  0  0  0  0
   -2.9039    0.7795   -0.4798 C   0  0  0  0  0  0  0  0  0  0  0  0
   -2.3461   -0.3458    0.4131 C   0  0  0  0  0  0  0  0  0  0  0  0
   -3.1600   -1.6306    0.1751 C   0  0  0  0  0  0  0  0  0  0  0  0
   -2.4814    0.0347    1.9027 C   0  0  0  0  0  0  0  0  0  0  0  0
   -0.8663   -0.6092    0.0495 C   0  0  0  0  0  0  0  0  0  0  0  0
  1  2  1  0
  2  3  1  0
  2  4  1  0
  4  5  2  0
  4  6  1  0
  6  7  1  0
  7  8  2  0
  8  9  1  0
  9 10  2  0
  9 11  1  0
 11 12  1  0
 12 13  1  0
 12 14  1  0
 12 15  1  0
 15  7  1  0
M  END
>  <target>  (830) 
-0.85

$$$$

     RDKit          3D

  8  8  0  0  0  0  0  0  0  0999 V2000
   -2.2695    0.0696    0.1097 C   0  0  0  0  0  0  0  0  0  0  0  0
   -0.7728    0.0266    0.0125 C   0  0  0  0  0  0  0  0  0  0  0  0
   -0.0207    1.2024    0.1336 C   0  0  0  0  0  0  0  0  0  0  0  0
    1.3741    1.1597    0.0748 C   0  0  0  0  0  0  0  0  0  0  0  0
    2.0212   -0.0623   -0.0949 C   0  0  0  0  0  0  0  0  0  0  0  0
    3.9091   -0.1216   -0.1735 Br  0  0  0  0  0  0  0  0  0  0  0  0
    1.2871   -1.2414   -0.2023 C   0  0  0  0  0  0  0  0  0  0  0  0
   -0.1077   -1.1966   -0.1432 C   0  0  0  0  0  0  0  0  0  0  0  0
  1  2  1  0
  2  3  2  0
  3  4  1  0
  4  5  2  0
  5  6  1  0
  5  7  1  0
  7  8  2  0
  8  2  1  0
M  END
>  <target>  (831) 
-3.19

$$$$

     RDKit          3D

  5  4  0  0  0  0  0  0  0  0999 V2000
    2.2658    0.1385   -0.8732 C   0  0  0  0  0  0  0  0  0  0  0  0
    1.2450   -0.0152    0.2366 C   0  0  0  0  0  0  0  0  0  0  0  0
   -0.0581    0.0395   -0.3388 O   0  0  0  0  0  0  0  0  0  0  0  0
   -1.0771   -0.0988    0.6484 C   0  0  0  0  0  0  0  0  0  0  0  0
   -2.4251   -0.0304   -0.0412 C   0  0  0  0  0  0  0  0  0  0  0  0
  1  2  1  0
  2  3  1  0
  3  4  1  0
  4  5  1  0
M  END
>  <target>  (832) 
-0.09

$$$$

     RDKit          3D

 21 22  0  0  0  0  0  0  0  0999 V2000
    4.2790   -1.8016    0.3401 C   0  0  0  0  0  0  0  0  0  0  0  0
    3.9167   -0.4126   -0.1747 C   0  0  0  0  0  0  0  0  0  0  0  0
    4.2066   -0.2955   -1.6693 C   0  0  0  0  0  0  0  0  0  0  0  0
    2.5157   -0.1304    0.0989 N   0  0  0  0  0  0  0  0  0  0  0  0
    2.0257    1.1440    0.1931 C   0  0  0  0  0  0  0  0  0  0  0  0
    2.7449    2.1402    0.1753 O   0  0  0  0  0  0  0  0  0  0  0  0
    0.6506    1.2393    0.3259 N   0  0  0  0  0  0  0  0  0  0  0  0
    0.0495    2.5235    0.5062 C   0  0  0  0  0  0  0  0  0  0  0  0
   -1.4142    2.1731    0.5790 C   0  0  0  0  0  0  0  0  0  0  0  0
   -2.2701    3.0367    0.7280 O   0  0  0  0  0  0  0  0  0  0  0  0
   -1.5717    0.8106    0.4309 N   0  0  0  0  0  0  0  0  0  0  0  0
   -0.3242    0.2335    0.2601 C   0  0  0  0  0  0  0  0  0  0  0  0
   -0.0491   -0.9475    0.0832 O   0  0  0  0  0  0  0  0  0  0  0  0
   -2.8245    0.1104    0.4404 C   0  0  0  0  0  0  0  0  0  0  0  0
   -4.0262    0.7531    0.7897 C   0  0  0  0  0  0  0  0  0  0  0  0
   -5.2483    0.0681    0.7993 C   0  0  0  0  0  0  0  0  0  0  0  0
   -6.6895    0.9014    1.2407 Cl  0  0  0  0  0  0  0  0  0  0  0  0
   -5.3142   -1.2748    0.4620 C   0  0  0  0  0  0  0  0  0  0  0  0
   -4.1422   -1.9288    0.1148 C   0  0  0  0  0  0  0  0  0  0  0  0
   -4.2000   -3.5962   -0.3133 Cl  0  0  0  0  0  0  0  0  0  0  0  0
   -2.9152   -1.2519    0.1038 C   0  0  0  0  0  0  0  0  0  0  0  0
  1  2  1  0
  2  3  1  0
  2  4  1  0
  4  5  1  0
  5  6  2  0
  5  7  1  0
  7  8  1  0
  8  9  1  0
  9 10  2  0
  9 11  1  0
 11 12  1  0
 12 13  2  0
 11 14  1  0
 14 15  2  0
 15 16  1  0
 16 17  1  0
 16 18  2  0
 18 19  1  0
 19 20  1  0
 19 21  2  0
 12  7  1  0
 21 14  1  0
M  END
>  <target>  (833) 
-4.376

$$$$

     RDKit          3D

 23 23  0  0  0  0  0  0  0  0999 V2000
   -3.8552    2.1098   -1.0005 C   0  0  0  0  0  0  0  0  0  0  0  0
   -3.3477    0.6777   -1.0556 C   0  0  0  0  0  0  0  0  0  0  0  0
   -2.0542    0.5115   -0.2578 C   0  0  0  0  0  0  0  0  0  0  0  0
   -1.5479   -0.9326   -0.3173 C   0  0  0  0  0  0  0  0  0  0  0  0
   -0.3392   -1.1287    0.5158 N   0  0  0  0  0  0  0  0  0  0  0  0
   -0.0400   -2.5353    0.8654 C   0  0  0  0  0  0  0  0  0  0  0  0
   -0.8600   -2.9647    2.0743 C   0  0  0  0  0  0  0  0  0  0  0  0
    0.8016   -0.3724    0.1988 C   0  0  0  0  0  0  0  0  0  0  0  0
    1.5172   -0.4099   -1.0129 C   0  0  0  0  0  0  0  0  0  0  0  0
    2.6384    0.4075   -1.2766 C   0  0  0  0  0  0  0  0  0  0  0  0
    3.1101    1.3014   -0.3063 C   0  0  0  0  0  0  0  0  0  0  0  0
    2.4363    1.3626    0.9178 C   0  0  0  0  0  0  0  0  0  0  0  0
    1.3201    0.5348    1.1469 C   0  0  0  0  0  0  0  0  0  0  0  0
    0.6882    0.6539    2.4455 N   0  0  0  0  0  0  0  0  0  0  0  0
   -0.1126    1.5867    2.5944 O   0  0  0  0  0  0  0  0  0  0  0  0
    1.0656   -0.1327    3.3246 O   0  0  0  0  0  0  0  0  0  0  0  0
    4.2942    2.1974   -0.5882 C   0  0  0  0  0  0  0  0  0  0  0  0
    4.9789    2.5379    0.5361 F   0  0  0  0  0  0  0  0  0  0  0  0
    5.2007    1.6213   -1.4225 F   0  0  0  0  0  0  0  0  0  0  0  0
    3.9222    3.3640   -1.1769 F   0  0  0  0  0  0  0  0  0  0  0  0
    1.1524   -1.3260   -2.0722 N   0  0  0  0  0  0  0  0  0  0  0  0
    0.6196   -0.8332   -3.0753 O   0  0  0  0  0  0  0  0  0  0  0  0
    1.4456   -2.5180   -1.9159 O   0  0  0  0  0  0  0  0  0  0  0  0
  1  2  1  0
  2  3  1  0
  3  4  1  0
  4  5  1  0
  5  6  1  0
  6  7  1  0
  5  8  1  0
  8  9  2  0
  9 10  1  0
 10 11  2  0
 11 12  1  0
 12 13  2  0
 13 14  1  0
 14 15  1  0
 14 16  2  0
 11 17  1  0
 17 18  1  0
 17 19  1  0
 17 20  1  0
  9 21  1  0
 21 22  1  0
 21 23  2  0
 13  8  1  0
M  CHG  4  14   1  15  -1  21   1  22  -1
M  END
>  <target>  (834) 
-5.53

$$$$

     RDKit          3D

 10 10  0  0  0  0  0  0  0  0999 V2000
    2.8040   -0.5890    1.0500 C   0  0  0  0  0  0  0  0  0  0  0  0
    1.4380   -0.2734    0.5159 C   0  0  0  0  0  0  0  0  0  0  0  0
    0.6605   -1.2750   -0.0792 C   0  0  0  0  0  0  0  0  0  0  0  0
   -0.6323   -1.0058   -0.5563 C   0  0  0  0  0  0  0  0  0  0  0  0
   -1.4208   -2.1139   -1.1929 C   0  0  0  0  0  0  0  0  0  0  0  0
   -1.1396    0.2942   -0.4154 C   0  0  0  0  0  0  0  0  0  0  0  0
   -2.3916    0.6321   -0.8562 O   0  0  0  0  0  0  0  0  0  0  0  0
   -0.3847    1.3085    0.1901 C   0  0  0  0  0  0  0  0  0  0  0  0
   -0.9412    2.6953    0.3442 C   0  0  0  0  0  0  0  0  0  0  0  0
    0.9023    1.0112    0.6578 C   0  0  0  0  0  0  0  0  0  0  0  0
  1  2  1  0
  2  3  2  0
  3  4  1  0
  4  5  1  0
  4  6  2  0
  6  7  1  0
  6  8  1  0
  8  9  1  0
  8 10  2  0
 10  2  1  0
M  END
>  <target>  (835) 
-2.05

$$$$

     RDKit          3D

  6  6  0  0  0  0  0  0  0  0999 V2000
    1.2142   -0.6864    0.0034 C   0  0  0  0  0  0  0  0  0  0  0  0
    1.2016    0.7083   -0.0045 C   0  0  0  0  0  0  0  0  0  0  0  0
   -0.0126    1.3947   -0.0079 C   0  0  0  0  0  0  0  0  0  0  0  0
   -1.2142    0.6864   -0.0034 C   0  0  0  0  0  0  0  0  0  0  0  0
   -1.2016   -0.7083    0.0045 C   0  0  0  0  0  0  0  0  0  0  0  0
    0.0126   -1.3947    0.0079 C   0  0  0  0  0  0  0  0  0  0  0  0
  1  2  2  0
  2  3  1  0
  3  4  2  0
  4  5  1  0
  5  6  2  0
  6  1  1  0
M  END
>  <target>  (836) 
-1.64

$$$$

     RDKit          3D

  8  8  0  0  0  0  0  0  0  0999 V2000
   -3.0249    0.7880    0.2944 Cl  0  0  0  0  0  0  0  0  0  0  0  0
   -1.3675    0.3562    0.1331 C   0  0  0  0  0  0  0  0  0  0  0  0
   -1.0085   -0.9877    0.0348 C   0  0  0  0  0  0  0  0  0  0  0  0
    0.3373   -1.3396   -0.0962 C   0  0  0  0  0  0  0  0  0  0  0  0
    1.3135   -0.3422   -0.1278 C   0  0  0  0  0  0  0  0  0  0  0  0
    3.3159   -0.8638   -0.3227 I   0  0  0  0  0  0  0  0  0  0  0  0
    0.9542    1.0032   -0.0295 C   0  0  0  0  0  0  0  0  0  0  0  0
   -0.3923    1.3526    0.1015 C   0  0  0  0  0  0  0  0  0  0  0  0
  1  2  1  0
  2  3  2  0
  3  4  1  0
  4  5  2  0
  5  6  1  0
  5  7  1  0
  7  8  2  0
  8  2  1  0
M  END
>  <target>  (837) 
-4.03

$$$$

     RDKit          3D

 15 15  0  0  0  0  0  0  0  0999 V2000
    5.2490   -0.4552   -0.0633 C   0  0  0  0  0  0  0  0  0  0  0  0
    4.4525    0.7191   -0.1463 O   0  0  0  0  0  0  0  0  0  0  0  0
    3.0915    0.5647   -0.1351 C   0  0  0  0  0  0  0  0  0  0  0  0
    2.4322   -0.6589   -0.0004 C   0  0  0  0  0  0  0  0  0  0  0  0
    1.0311   -0.7197    0.0017 C   0  0  0  0  0  0  0  0  0  0  0  0
    0.2650    0.4376   -0.1381 C   0  0  0  0  0  0  0  0  0  0  0  0
   -1.1447    0.4484   -0.1289 N   0  0  0  0  0  0  0  0  0  0  0  0
   -1.9894   -0.6328   -0.2532 C   0  0  0  0  0  0  0  0  0  0  0  0
   -1.6291   -1.7657   -0.5619 O   0  0  0  0  0  0  0  0  0  0  0  0
   -3.3356   -0.3268   -0.0305 N   0  0  0  0  0  0  0  0  0  0  0  0
   -4.2967   -1.3912   -0.2696 C   0  0  0  0  0  0  0  0  0  0  0  0
   -3.7877    0.7261    0.8705 C   0  0  0  0  0  0  0  0  0  0  0  0
    0.9192    1.6659   -0.2609 C   0  0  0  0  0  0  0  0  0  0  0  0
    2.3178    1.7277   -0.2620 C   0  0  0  0  0  0  0  0  0  0  0  0
    3.0535    3.2865   -0.4238 Cl  0  0  0  0  0  0  0  0  0  0  0  0
  1  2  1  0
  2  3  1  0
  3  4  2  0
  4  5  1  0
  5  6  2  0
  6  7  1  0
  7  8  1  0
  8  9  2  0
  8 10  1  0
 10 11  1  0
 10 12  1  0
  6 13  1  0
 13 14  2  0
 14 15  1  0
 14  3  1  0
M  END
>  <target>  (838) 
-2.5639999999999996

$$$$

     RDKit          3D

 14 14  0  0  0  0  0  0  0  0999 V2000
   -0.8182   -1.7327   -2.0010 C   0  0  0  0  0  0  0  0  0  0  0  0
   -1.2296   -1.0627   -0.6860 C   0  0  0  0  0  0  0  0  0  0  0  0
   -2.7397   -0.8185   -0.6275 C   0  0  0  0  0  0  0  0  0  0  0  0
   -0.4500    0.1719   -0.4098 N   0  0  0  0  0  0  0  0  0  0  0  0
   -0.5750    1.2810   -1.2587 C   0  0  0  0  0  0  0  0  0  0  0  0
   -1.2196    1.2366   -2.3119 O   0  0  0  0  0  0  0  0  0  0  0  0
    0.0045    2.6137   -0.8002 C   0  0  0  0  0  0  0  0  0  0  0  0
    1.2850    3.1316   -1.9160 Cl  0  0  0  0  0  0  0  0  0  0  0  0
    0.5520    0.0660    0.5997 C   0  0  0  0  0  0  0  0  0  0  0  0
    1.8885    0.3777    0.3242 C   0  0  0  0  0  0  0  0  0  0  0  0
    2.8630    0.2604    1.3181 C   0  0  0  0  0  0  0  0  0  0  0  0
    2.5117   -0.1783    2.5927 C   0  0  0  0  0  0  0  0  0  0  0  0
    1.1878   -0.5088    2.8727 C   0  0  0  0  0  0  0  0  0  0  0  0
    0.2130   -0.3937    1.8788 C   0  0  0  0  0  0  0  0  0  0  0  0
  1  2  1  0
  2  3  1  0
  2  4  1  0
  4  5  1  0
  5  6  2  0
  5  7  1  0
  7  8  1  0
  4  9  1  0
  9 10  2  0
 10 11  1  0
 11 12  2  0
 12 13  1  0
 13 14  2  0
 14  9  1  0
M  END
>  <target>  (839) 
-2.48

$$$$

     RDKit          3D

  8  8  0  0  0  0  0  0  0  0999 V2000
    2.6783   -0.0814    0.9617 C   0  0  0  0  0  0  0  0  0  0  0  0
    1.8607   -0.5103   -0.0085 C   0  0  0  0  0  0  0  0  0  0  0  0
    0.4299   -0.1880   -0.0984 C   0  0  0  0  0  0  0  0  0  0  0  0
   -0.0884    1.0503    0.3029 C   0  0  0  0  0  0  0  0  0  0  0  0
   -1.4521    1.3279    0.1724 C   0  0  0  0  0  0  0  0  0  0  0  0
   -2.3104    0.3740   -0.3699 C   0  0  0  0  0  0  0  0  0  0  0  0
   -1.8056   -0.8554   -0.7870 C   0  0  0  0  0  0  0  0  0  0  0  0
   -0.4420   -1.1322   -0.6570 C   0  0  0  0  0  0  0  0  0  0  0  0
  1  2  2  0
  2  3  1  0
  3  4  2  0
  4  5  1  0
  5  6  2  0
  6  7  1  0
  7  8  2  0
  8  3  1  0
M  END
>  <target>  (840) 
-2.82

$$$$

     RDKit          3D

  5  4  0  0  0  0  0  0  0  0999 V2000
    1.7693    0.5222   -0.4678 C   0  0  0  0  0  0  0  0  0  0  0  0
    0.6596   -0.0937   -1.1074 O   0  0  0  0  0  0  0  0  0  0  0  0
    0.0003   -1.0141   -0.2452 C   0  0  0  0  0  0  0  0  0  0  0  0
   -0.6594   -0.3758    0.8421 O   0  0  0  0  0  0  0  0  0  0  0  0
   -1.7695    0.3954    0.4029 C   0  0  0  0  0  0  0  0  0  0  0  0
  1  2  1  0
  2  3  1  0
  3  4  1  0
  4  5  1  0
M  END
>  <target>  (841) 
0.48

$$$$

     RDKit          3D

  8  8  0  0  0  0  0  0  0  0999 V2000
   -1.7115    1.2300   -0.3549 C   0  0  0  0  0  0  0  0  0  0  0  0
   -0.3335    0.6429   -0.2192 C   0  0  0  0  0  0  0  0  0  0  0  0
    0.7859    1.4525   -0.4688 C   0  0  0  0  0  0  0  0  0  0  0  0
    2.0779    0.9404   -0.3524 C   0  0  0  0  0  0  0  0  0  0  0  0
    2.2676   -0.3874    0.0150 C   0  0  0  0  0  0  0  0  0  0  0  0
    1.1654   -1.2042    0.2663 C   0  0  0  0  0  0  0  0  0  0  0  0
   -0.1412   -0.7033    0.1533 C   0  0  0  0  0  0  0  0  0  0  0  0
   -1.3053   -1.6139    0.4321 C   0  0  0  0  0  0  0  0  0  0  0  0
  1  2  1  0
  2  3  2  0
  3  4  1  0
  4  5  2  0
  5  6  1  0
  6  7  2  0
  7  8  1  0
  7  2  1  0
M  END
>  <target>  (842) 
-2.8

$$$$

     RDKit          3D

  5  4  0  0  0  0  0  0  0  0999 V2000
    1.9817    0.0534   -0.0639 C   0  0  0  0  0  0  0  0  0  0  0  0
    0.6080   -0.5216    0.2543 C   0  0  0  0  0  0  0  0  0  0  0  0
   -0.5208    0.2776   -0.4022 C   0  0  0  0  0  0  0  0  0  0  0  0
   -1.8818   -0.3458   -0.1239 C   0  0  0  0  0  0  0  0  0  0  0  0
   -0.5220    1.6160    0.0872 O   0  0  0  0  0  0  0  0  0  0  0  0
  1  2  1  0
  2  3  1  0
  3  4  1  0
  3  5  1  0
M  END
>  <target>  (843) 
0.47

$$$$

     RDKit          3D

  8  8  0  0  0  0  0  0  0  0999 V2000
   -2.7261    0.3214   -0.1057 O   0  0  0  0  0  0  0  0  0  0  0  0
   -1.3758    0.1390   -0.0570 C   0  0  0  0  0  0  0  0  0  0  0  0
   -0.5795    1.2582    0.1671 C   0  0  0  0  0  0  0  0  0  0  0  0
    0.8081    1.1211    0.2251 C   0  0  0  0  0  0  0  0  0  0  0  0
    1.3758   -0.1390    0.0570 C   0  0  0  0  0  0  0  0  0  0  0  0
    2.7261   -0.3214    0.1057 O   0  0  0  0  0  0  0  0  0  0  0  0
    0.5795   -1.2582   -0.1671 C   0  0  0  0  0  0  0  0  0  0  0  0
   -0.8081   -1.1211   -0.2251 C   0  0  0  0  0  0  0  0  0  0  0  0
  1  2  1  0
  2  3  2  0
  3  4  1  0
  4  5  2  0
  5  6  1  0
  5  7  1  0
  7  8  2  0
  8  2  1  0
M  END
>  <target>  (844) 
-0.17

$$$$

     RDKit          3D

 21 24  0  0  0  0  0  0  0  0999 V2000
   -2.0973    0.4094   -2.2808 C   0  0  0  0  0  0  0  0  0  0  0  0
   -2.1600   -0.1051   -0.8322 C   0  0  0  0  0  0  0  0  0  0  0  0
   -1.5603   -1.5276   -0.7542 C   0  0  0  0  0  0  0  0  0  0  0  0
   -0.0340   -1.5591   -0.8713 C   0  0  0  0  0  0  0  0  0  0  0  0
    0.6440   -0.6615    0.1831 C   0  0  0  0  0  0  0  0  0  0  0  0
    0.0913    0.7799    0.0564 C   0  0  0  0  0  0  0  0  0  0  0  0
    0.7723    1.6820    1.0886 C   0  0  0  0  0  0  0  0  0  0  0  0
    2.2575    1.8019    0.7665 C   0  0  0  0  0  0  0  0  0  0  0  0
    2.9169    0.4788    0.4596 C   0  0  0  0  0  0  0  0  0  0  0  0
    4.3227    0.4358    0.4449 C   0  0  0  0  0  0  0  0  0  0  0  0
    4.9822   -0.7524    0.1587 C   0  0  0  0  0  0  0  0  0  0  0  0
    6.3428   -0.8259    0.1414 O   0  0  0  0  0  0  0  0  0  0  0  0
    4.2678   -1.9066   -0.1126 C   0  0  0  0  0  0  0  0  0  0  0  0
    2.8723   -1.8728   -0.1104 C   0  0  0  0  0  0  0  0  0  0  0  0
    2.1716   -0.6803    0.1472 C   0  0  0  0  0  0  0  0  0  0  0  0
   -1.4435    0.8543    0.1447 C   0  0  0  0  0  0  0  0  0  0  0  0
   -2.0500    0.5336    1.5245 C   0  0  0  0  0  0  0  0  0  0  0  0
   -3.4331   -0.0706    1.2536 C   0  0  0  0  0  0  0  0  0  0  0  0
   -4.4455    0.7252    1.8632 O   0  0  0  0  0  0  0  0  0  0  0  0
   -3.6016   -0.0885   -0.2788 C   0  0  0  0  0  0  0  0  0  0  0  0
   -4.3047    1.0876   -0.6935 O   0  0  0  0  0  0  0  0  0  0  0  0
  1  2  1  0
  2  3  1  0
  3  4  1  0
  4  5  1  0
  5  6  1  0
  6  7  1  0
  7  8  1  0
  8  9  1  0
  9 10  2  0
 10 11  1  0
 11 12  1  0
 11 13  2  0
 13 14  1  0
 14 15  2  0
  6 16  1  0
 16 17  1  0
 17 18  1  0
 18 19  1  0
 18 20  1  0
 20 21  1  0
 15  5  1  0
 15  9  1  0
 16  2  1  0
 20  2  1  0
M  END
>  <target>  (845) 
-4.955

$$$$

     RDKit          3D

 17 20  0  0  0  0  0  0  0  0999 V2000
   -1.2099   -1.9591   -0.5650 C   0  0  0  0  0  0  0  0  0  0  0  0
   -2.3589   -1.0073   -0.3032 C   0  0  0  0  0  0  0  0  0  0  0  0
   -3.7175   -1.2605   -0.3922 C   0  0  0  0  0  0  0  0  0  0  0  0
   -4.5983   -0.2171   -0.1007 C   0  0  0  0  0  0  0  0  0  0  0  0
   -4.1151    1.0493    0.2710 C   0  0  0  0  0  0  0  0  0  0  0  0
   -2.7410    1.2964    0.3584 C   0  0  0  0  0  0  0  0  0  0  0  0
   -1.8665    0.2625    0.0696 C   0  0  0  0  0  0  0  0  0  0  0  0
   -0.4193    0.2164    0.0731 C   0  0  0  0  0  0  0  0  0  0  0  0
    0.5165    1.1943    0.3667 C   0  0  0  0  0  0  0  0  0  0  0  0
    1.8852    0.8774    0.2910 C   0  0  0  0  0  0  0  0  0  0  0  0
    2.8629    1.8414    0.5810 C   0  0  0  0  0  0  0  0  0  0  0  0
    4.2211    1.5277    0.5061 C   0  0  0  0  0  0  0  0  0  0  0  0
    4.6218    0.2461    0.1402 C   0  0  0  0  0  0  0  0  0  0  0  0
    3.6664   -0.7285   -0.1527 C   0  0  0  0  0  0  0  0  0  0  0  0
    2.2961   -0.4348   -0.0836 C   0  0  0  0  0  0  0  0  0  0  0  0
    1.3348   -1.4155   -0.3783 C   0  0  0  0  0  0  0  0  0  0  0  0
   -0.0065   -1.0786   -0.2965 C   0  0  0  0  0  0  0  0  0  0  0  0
  1  2  1  0
  2  3  2  0
  3  4  1  0
  4  5  2  0
  5  6  1  0
  6  7  2  0
  7  8  1  0
  8  9  2  0
  9 10  1  0
 10 11  2  0
 11 12  1  0
 12 13  2  0
 13 14  1  0
 14 15  2  0
 15 16  1  0
 16 17  2  0
 17  1  1  0
  7  2  1  0
 17  8  1  0
 15 10  1  0
M  END
>  <target>  (846) 
-8.04

$$$$

     RDKit          3D

  7  7  0  0  0  0  0  0  0  0999 V2000
   -1.1495    2.0960   -0.1067 O   0  0  0  0  0  0  0  0  0  0  0  0
   -0.5186    1.0521   -0.0509 C   0  0  0  0  0  0  0  0  0  0  0  0
   -1.1100   -0.3489   -0.0406 C   0  0  0  0  0  0  0  0  0  0  0  0
    0.0921   -1.1341    0.0340 N   0  0  0  0  0  0  0  0  0  0  0  0
    1.2187   -0.3475    0.0638 C   0  0  0  0  0  0  0  0  0  0  0  0
    2.3615   -0.7616    0.1260 O   0  0  0  0  0  0  0  0  0  0  0  0
    0.8362    0.9498    0.0125 N   0  0  0  0  0  0  0  0  0  0  0  0
  1  2  2  0
  2  3  1  0
  3  4  1  0
  4  5  1  0
  5  6  2  0
  5  7  1  0
  7  2  1  0
M  END
>  <target>  (847) 
-0.4

$$$$

     RDKit          3D

 14 14  0  0  0  0  0  0  0  0999 V2000
   -2.5835   -0.8574   -0.6122 C   0  0  0  0  0  0  0  0  0  0  0  0
   -1.8528   -1.8321   -1.2337 O   0  0  0  0  0  0  0  0  0  0  0  0
   -3.9105   -1.0988   -0.2527 C   0  0  0  0  0  0  0  0  0  0  0  0
   -4.6300   -0.0932    0.3856 C   0  0  0  0  0  0  0  0  0  0  0  0
   -5.9295   -0.2739    0.7598 O   0  0  0  0  0  0  0  0  0  0  0  0
   -4.0446    1.1350    0.6671 C   0  0  0  0  0  0  0  0  0  0  0  0
   -2.7174    1.3684    0.3043 C   0  0  0  0  0  0  0  0  0  0  0  0
   -1.9711    0.3744   -0.3469 C   0  0  0  0  0  0  0  0  0  0  0  0
   -0.5314    0.6405   -0.7161 C   0  0  0  0  0  0  0  0  0  0  0  0
    0.4326    0.1469    0.3656 C   0  0  0  0  0  0  0  0  0  0  0  0
    1.8873    0.4289   -0.0175 C   0  0  0  0  0  0  0  0  0  0  0  0
    2.8507   -0.0674    1.0629 C   0  0  0  0  0  0  0  0  0  0  0  0
    4.3129    0.2831    0.7788 C   0  0  0  0  0  0  0  0  0  0  0  0
    4.8765   -0.4126   -0.4506 C   0  0  0  0  0  0  0  0  0  0  0  0
  1  2  1  0
  1  3  2  0
  3  4  1  0
  4  5  1  0
  4  6  2  0
  6  7  1  0
  7  8  2  0
  8  9  1  0
  9 10  1  0
 10 11  1  0
 11 12  1  0
 12 13  1  0
 13 14  1  0
  8  1  1  0
M  END
>  <target>  (848) 
-2.59

$$$$

     RDKit          3D

  9  8  0  0  0  0  0  0  0  0999 V2000
   -4.3996    0.7284    0.9227 C   0  0  0  0  0  0  0  0  0  0  0  0
   -3.3942   -0.1355    0.7285 C   0  0  0  0  0  0  0  0  0  0  0  0
   -2.2002    0.1269   -0.1412 C   0  0  0  0  0  0  0  0  0  0  0  0
   -0.6630    0.0245    0.8382 S   0  0  0  0  0  0  0  0  0  0  0  0
   -0.3970   -1.4193    1.1491 O   0  0  0  0  0  0  0  0  0  0  0  0
    0.7627    0.3345   -0.6244 S   0  0  0  0  0  0  0  0  0  0  0  0
    2.2054   -0.5032    0.0896 C   0  0  0  0  0  0  0  0  0  0  0  0
    3.4035   -0.2353   -0.7729 C   0  0  0  0  0  0  0  0  0  0  0  0
    4.4918    0.4371   -0.3736 C   0  0  0  0  0  0  0  0  0  0  0  0
  1  2  2  0
  2  3  1  0
  3  4  1  0
  4  5  2  0
  4  6  1  0
  6  7  1  0
  7  8  1  0
  8  9  2  0
M  END
>  <target>  (849) 
-0.83

$$$$

     RDKit          3D

 22 23  0  0  0  0  0  0  0  0999 V2000
   -2.4481   -3.1302   -0.6889 C   0  0  0  0  0  0  0  0  0  0  0  0
   -2.5856   -1.6972   -1.1610 C   0  0  0  0  0  0  0  0  0  0  0  0
   -1.6805   -0.8933   -0.4235 O   0  0  0  0  0  0  0  0  0  0  0  0
   -1.7075    0.7108   -0.6529 P   0  0  0  0  0  0  0  0  0  0  0  0
   -1.2496    1.3416   -2.4303 S   0  0  0  0  0  0  0  0  0  0  0  0
   -3.2019    1.0659   -0.1350 O   0  0  0  0  0  0  0  0  0  0  0  0
   -3.5698    2.4300   -0.0120 C   0  0  0  0  0  0  0  0  0  0  0  0
   -4.8572    2.5119    0.7821 C   0  0  0  0  0  0  0  0  0  0  0  0
   -0.8087    1.2427    0.5803 O   0  0  0  0  0  0  0  0  0  0  0  0
    0.5206    0.9971    0.7860 C   0  0  0  0  0  0  0  0  0  0  0  0
    1.1020    1.6999    1.8408 C   0  0  0  0  0  0  0  0  0  0  0  0
    2.4486    1.5182    2.1386 C   0  0  0  0  0  0  0  0  0  0  0  0
    3.2018    0.6277    1.3743 C   0  0  0  0  0  0  0  0  0  0  0  0
    4.5513    0.4934    1.7351 O   0  0  0  0  0  0  0  0  0  0  0  0
    5.4051   -0.3669    1.0602 C   0  0  0  0  0  0  0  0  0  0  0  0
    6.5790   -0.4740    1.4009 O   0  0  0  0  0  0  0  0  0  0  0  0
    4.8138   -1.1297   -0.0738 C   0  0  0  0  0  0  0  0  0  0  0  0
    5.9245   -2.1872   -0.8923 Cl  0  0  0  0  0  0  0  0  0  0  0  0
    3.5225   -1.0186   -0.4446 C   0  0  0  0  0  0  0  0  0  0  0  0
    2.9006   -1.7766   -1.5911 C   0  0  0  0  0  0  0  0  0  0  0  0
    2.6541   -0.0939    0.3154 C   0  0  0  0  0  0  0  0  0  0  0  0
    1.2904    0.1040    0.0331 C   0  0  0  0  0  0  0  0  0  0  0  0
  1  2  1  0
  2  3  1  0
  3  4  1  0
  4  5  2  0
  4  6  1  0
  6  7  1  0
  7  8  1  0
  4  9  1  0
  9 10  1  0
 10 11  2  0
 11 12  1  0
 12 13  2  0
 13 14  1  0
 14 15  1  0
 15 16  2  0
 15 17  1  0
 17 18  1  0
 17 19  2  0
 19 20  1  0
 19 21  1  0
 21 22  2  0
 21 13  1  0
 22 10  1  0
M  END
>  <target>  (850) 
-5.382000000000001

$$$$

     RDKit          3D

 20 23  0  0  0  0  0  0  0  0999 V2000
   -2.1635   -2.7915    0.0150 C   0  0  0  0  0  0  0  0  0  0  0  0
   -1.5171   -1.4187    0.0454 C   0  0  0  0  0  0  0  0  0  0  0  0
   -0.1093   -1.3004    0.2159 C   0  0  0  0  0  0  0  0  0  0  0  0
    0.6351   -2.5362    0.6865 C   0  0  0  0  0  0  0  0  0  0  0  0
    0.5707   -0.0430    0.0513 C   0  0  0  0  0  0  0  0  0  0  0  0
    2.0257    0.1400   -0.0808 C   0  0  0  0  0  0  0  0  0  0  0  0
    2.9719   -0.8864   -0.3563 C   0  0  0  0  0  0  0  0  0  0  0  0
    4.3540   -0.6698   -0.4312 C   0  0  0  0  0  0  0  0  0  0  0  0
    4.8596    0.6046   -0.2598 C   0  0  0  0  0  0  0  0  0  0  0  0
    3.9759    1.6559   -0.0565 C   0  0  0  0  0  0  0  0  0  0  0  0
    2.5871    1.4375    0.0041 C   0  0  0  0  0  0  0  0  0  0  0  0
    1.7546    2.5353    0.1212 C   0  0  0  0  0  0  0  0  0  0  0  0
    0.3742    2.3751    0.0947 C   0  0  0  0  0  0  0  0  0  0  0  0
   -0.2616    1.1151    0.0315 C   0  0  0  0  0  0  0  0  0  0  0  0
   -1.7016    1.0137   -0.0332 C   0  0  0  0  0  0  0  0  0  0  0  0
   -2.5681    2.1444   -0.1064 C   0  0  0  0  0  0  0  0  0  0  0  0
   -3.9583    2.0448   -0.1843 C   0  0  0  0  0  0  0  0  0  0  0  0
   -4.5470    0.7992   -0.1907 C   0  0  0  0  0  0  0  0  0  0  0  0
   -3.7380   -0.3316   -0.1219 C   0  0  0  0  0  0  0  0  0  0  0  0
   -2.3210   -0.2589   -0.0489 C   0  0  0  0  0  0  0  0  0  0  0  0
  1  2  1  0
  2  3  2  0
  3  4  1  0
  3  5  1  0
  5  6  2  0
  6  7  1  0
  7  8  2  0
  8  9  1  0
  9 10  2  0
 10 11  1  0
 11 12  2  0
 12 13  1  0
 13 14  2  0
 14 15  1  0
 15 16  2  0
 16 17  1  0
 17 18  2  0
 18 19  1  0
 19 20  2  0
 20  2  1  0
 14  5  1  0
 11  6  1  0
 20 15  1  0
M  END
>  <target>  (851) 
-7.01

$$$$

     RDKit          3D

 34 37  0  0  0  0  0  0  0  0999 V2000
    6.8582    1.1460    2.4965 C   0  0  0  0  0  0  0  0  0  0  0  0
    5.4183    1.0119    2.0261 C   0  0  0  0  0  0  0  0  0  0  0  0
    5.1570    1.8602    0.7788 C   0  0  0  0  0  0  0  0  0  0  0  0
    3.7069    1.7691    0.3058 C   0  0  0  0  0  0  0  0  0  0  0  0
    3.3686    0.4248   -0.2938 C   0  0  0  0  0  0  0  0  0  0  0  0
    4.1735   -0.3770   -0.7429 O   0  0  0  0  0  0  0  0  0  0  0  0
    2.0198    0.2412   -0.2717 O   0  0  0  0  0  0  0  0  0  0  0  0
    1.4457   -0.9503   -0.8777 C   0  0  0  0  0  0  0  0  0  0  0  0
    1.4007   -2.1381    0.1574 C   0  0  0  0  0  0  0  0  0  0  0  0
    2.5708   -2.2504    1.1297 C   0  0  0  0  0  0  0  0  0  0  0  0
    0.0601   -1.9923    0.9385 C   0  0  0  0  0  0  0  0  0  0  0  0
   -0.5571   -0.7082    0.4029 C   0  0  0  0  0  0  0  0  0  0  0  0
   -2.0226   -0.3744    0.7256 C   0  0  0  0  0  0  0  0  0  0  0  0
   -3.0554   -1.4630    0.3999 C   0  0  0  0  0  0  0  0  0  0  0  0
   -4.4855   -1.0337    0.7254 C   0  0  0  0  0  0  0  0  0  0  0  0
   -4.8090    0.2955    0.0909 C   0  0  0  0  0  0  0  0  0  0  0  0
   -5.8507    0.4227   -0.7506 C   0  0  0  0  0  0  0  0  0  0  0  0
   -6.1565    1.7021   -1.4260 C   0  0  0  0  0  0  0  0  0  0  0  0
   -7.1091    1.8088   -2.1886 O   0  0  0  0  0  0  0  0  0  0  0  0
   -5.2711    2.8498   -1.1437 C   0  0  0  0  0  0  0  0  0  0  0  0
   -4.2337    2.7280   -0.3050 C   0  0  0  0  0  0  0  0  0  0  0  0
   -3.8565    1.4445    0.4280 C   0  0  0  0  0  0  0  0  0  0  0  0
   -4.0217    1.7879    1.9321 C   0  0  0  0  0  0  0  0  0  0  0  0
   -2.3653    1.0272    0.1227 C   0  0  0  0  0  0  0  0  0  0  0  0
   -1.5581    1.9357    0.7879 F   0  0  0  0  0  0  0  0  0  0  0  0
   -1.9438    1.1473   -1.3772 C   0  0  0  0  0  0  0  0  0  0  0  0
   -2.8124    0.4289   -2.2454 O   0  0  0  0  0  0  0  0  0  0  0  0
   -0.4725    0.7375   -1.6293 C   0  0  0  0  0  0  0  0  0  0  0  0
   -0.1093   -0.6606   -1.0770 C   0  0  0  0  0  0  0  0  0  0  0  0
   -0.7197   -1.7603   -1.9887 C   0  0  0  0  0  0  0  0  0  0  0  0
    2.0974   -1.2090   -2.2626 C   0  0  0  0  0  0  0  0  0  0  0  0
    2.1255   -0.3183   -3.1237 O   0  0  0  0  0  0  0  0  0  0  0  0
    2.7248   -2.5675   -2.5488 C   0  0  0  0  0  0  0  0  0  0  0  0
    3.1534   -2.6672   -3.9010 O   0  0  0  0  0  0  0  0  0  0  0  0
  1  2  1  0
  2  3  1  0
  3  4  1  0
  4  5  1  0
  5  6  2  0
  5  7  1  0
  7  8  1  0
  8  9  1  0
  9 10  1  0
  9 11  1  0
 11 12  1  0
 12 13  1  0
 13 14  1  0
 14 15  1  0
 15 16  1  0
 16 17  2  0
 17 18  1  0
 18 19  2  0
 18 20  1  0
 20 21  2  0
 21 22  1  0
 22 23  1  0
 22 24  1  0
 24 25  1  0
 24 26  1  0
 26 27  1  0
 26 28  1  0
 28 29  1  0
 29 30  1  0
  8 31  1  0
 31 32  2  0
 31 33  1  0
 33 34  1  0
 22 16  1  0
 24 13  1  0
 29  8  1  0
 29 12  1  0
M  END
>  <target>  (852) 
-4.71

$$$$

     RDKit          3D

 12 13  0  0  0  0  0  0  0  0999 V2000
   -3.2419   -1.0473   -0.1773 O   0  0  0  0  0  0  0  0  0  0  0  0
   -2.1358   -0.5229   -0.1129 C   0  0  0  0  0  0  0  0  0  0  0  0
   -1.9739    0.8462   -0.0730 N   0  0  0  0  0  0  0  0  0  0  0  0
   -0.7755    1.5256   -0.0006 C   0  0  0  0  0  0  0  0  0  0  0  0
   -0.6853    2.7459    0.0325 O   0  0  0  0  0  0  0  0  0  0  0  0
    0.3935    0.6449    0.0337 C   0  0  0  0  0  0  0  0  0  0  0  0
    1.7217    0.9470    0.1034 N   0  0  0  0  0  0  0  0  0  0  0  0
    2.4407   -0.2608    0.1088 C   0  0  0  0  0  0  0  0  0  0  0  0
    3.6453   -0.4111    0.1620 O   0  0  0  0  0  0  0  0  0  0  0  0
    1.4557   -1.2706    0.0386 N   0  0  0  0  0  0  0  0  0  0  0  0
    0.2323   -0.6778   -0.0050 C   0  0  0  0  0  0  0  0  0  0  0  0
   -0.9792   -1.2663   -0.0760 N   0  0  0  0  0  0  0  0  0  0  0  0
  1  2  2  0
  2  3  1  0
  3  4  1  0
  4  5  2  0
  4  6  1  0
  6  7  1  0
  7  8  1  0
  8  9  2  0
  8 10  1  0
 10 11  1  0
 11 12  1  0
 11  6  2  0
 12  2  1  0
M  END
>  <target>  (853) 
-3.93

$$$$

     RDKit          3D

 11 11  0  0  0  0  0  0  0  0999 V2000
   -1.5693    1.9875    0.1475 O   0  0  0  0  0  0  0  0  0  0  0  0
   -0.6857    0.9407    0.0563 C   0  0  0  0  0  0  0  0  0  0  0  0
    0.6424    1.2002   -0.2890 C   0  0  0  0  0  0  0  0  0  0  0  0
    1.1965    2.8033   -0.6028 Cl  0  0  0  0  0  0  0  0  0  0  0  0
    1.5547    0.1517   -0.3869 C   0  0  0  0  0  0  0  0  0  0  0  0
    1.1412   -1.1610   -0.1396 C   0  0  0  0  0  0  0  0  0  0  0  0
    2.3392   -2.4015   -0.2836 Cl  0  0  0  0  0  0  0  0  0  0  0  0
   -0.1908   -1.4368    0.2085 C   0  0  0  0  0  0  0  0  0  0  0  0
   -0.6994   -3.0681    0.5146 Cl  0  0  0  0  0  0  0  0  0  0  0  0
   -1.1046   -0.3750    0.3052 C   0  0  0  0  0  0  0  0  0  0  0  0
   -2.7687   -0.6314    0.7301 Cl  0  0  0  0  0  0  0  0  0  0  0  0
  1  2  1  0
  2  3  2  0
  3  4  1  0
  3  5  1  0
  5  6  2  0
  6  7  1  0
  6  8  1  0
  8  9  1  0
  8 10  2  0
 10 11  1  0
 10  2  1  0
M  END
>  <target>  (854) 
-3.1

$$$$

     RDKit          3D

  8  8  0  0  0  0  0  0  0  0999 V2000
   -2.6454   -1.5841   -0.0777 Cl  0  0  0  0  0  0  0  0  0  0  0  0
   -1.1808   -0.6814   -0.0342 C   0  0  0  0  0  0  0  0  0  0  0  0
   -1.2302    0.7129   -0.0073 C   0  0  0  0  0  0  0  0  0  0  0  0
   -0.0449    1.4490    0.0280 C   0  0  0  0  0  0  0  0  0  0  0  0
    1.1837    0.7869    0.0363 C   0  0  0  0  0  0  0  0  0  0  0  0
    1.2208   -0.6078    0.0092 C   0  0  0  0  0  0  0  0  0  0  0  0
    2.7385   -1.4191    0.0196 Cl  0  0  0  0  0  0  0  0  0  0  0  0
    0.0418   -1.3491   -0.0261 C   0  0  0  0  0  0  0  0  0  0  0  0
  1  2  1  0
  2  3  2  0
  3  4  1  0
  4  5  2  0
  5  6  1  0
  6  7  1  0
  6  8  2  0
  8  2  1  0
M  END
>  <target>  (855) 
-3.04

$$$$

     RDKit          3D

 19 20  0  0  0  0  0  0  0  0999 V2000
    4.9600   -2.3081   -0.4607 Cl  0  0  0  0  0  0  0  0  0  0  0  0
    3.5714   -1.3152   -0.2535 C   0  0  0  0  0  0  0  0  0  0  0  0
    2.8926   -1.3165    0.9591 C   0  0  0  0  0  0  0  0  0  0  0  0
    1.7643   -0.5086    1.1219 C   0  0  0  0  0  0  0  0  0  0  0  0
    1.2995    0.3193    0.0782 C   0  0  0  0  0  0  0  0  0  0  0  0
    1.9955    0.2920   -1.1402 C   0  0  0  0  0  0  0  0  0  0  0  0
    3.1266   -0.5166   -1.3023 C   0  0  0  0  0  0  0  0  0  0  0  0
    0.0365    1.1660    0.3310 C   0  0  0  0  0  0  0  0  0  0  0  0
   -1.2296    0.2960    0.2431 C   0  0  0  0  0  0  0  0  0  0  0  0
   -1.5062   -0.4994   -0.8822 C   0  0  0  0  0  0  0  0  0  0  0  0
   -2.6636   -1.2810   -0.9381 C   0  0  0  0  0  0  0  0  0  0  0  0
   -3.5551   -1.2790    0.1303 C   0  0  0  0  0  0  0  0  0  0  0  0
   -4.9785   -2.2419    0.0603 Cl  0  0  0  0  0  0  0  0  0  0  0  0
   -3.2984   -0.5033    1.2567 C   0  0  0  0  0  0  0  0  0  0  0  0
   -2.1413    0.2781    1.3145 C   0  0  0  0  0  0  0  0  0  0  0  0
   -0.0970    2.5662   -0.3746 C   0  0  0  0  0  0  0  0  0  0  0  0
    1.4171    3.5382   -0.1907 Cl  0  0  0  0  0  0  0  0  0  0  0  0
   -1.4043    3.5523    0.4136 Cl  0  0  0  0  0  0  0  0  0  0  0  0
   -0.5001    2.4902   -2.1254 Cl  0  0  0  0  0  0  0  0  0  0  0  0
  1  2  1  0
  2  3  2  0
  3  4  1  0
  4  5  2  0
  5  6  1  0
  6  7  2  0
  5  8  1  0
  8  9  1  0
  9 10  2  0
 10 11  1  0
 11 12  2  0
 12 13  1  0
 12 14  1  0
 14 15  2  0
  8 16  1  0
 16 17  1  0
 16 18  1  0
 16 19  1  0
  7  2  1  0
 15  9  1  0
M  END
>  <target>  (856) 
-7.15

$$$$

     RDKit          3D

  7  6  0  0  0  0  0  0  0  0999 V2000
   -1.7715    0.9971    0.3222 C   0  0  0  0  0  0  0  0  0  0  0  0
   -0.7294    0.0521   -0.2722 C   0  0  0  0  0  0  0  0  0  0  0  0
   -1.0412   -1.3950    0.1159 C   0  0  0  0  0  0  0  0  0  0  0  0
    0.6801    0.4594    0.1758 C   0  0  0  0  0  0  0  0  0  0  0  0
    1.6433   -0.3642   -0.4968 O   0  0  0  0  0  0  0  0  0  0  0  0
    2.9297   -0.0995   -0.1605 C   0  0  0  0  0  0  0  0  0  0  0  0
    3.3175    0.7446    0.6306 O   0  0  0  0  0  0  0  0  0  0  0  0
  1  2  1  0
  2  3  1  0
  2  4  1  0
  4  5  1  0
  5  6  1  0
  6  7  2  0
M  END
>  <target>  (857) 
-1.01

$$$$

     RDKit          3D

  8  8  0  0  0  0  0  0  0  0999 V2000
   -0.8381   -0.4932    1.2076 C   0  0  0  0  0  0  0  0  0  0  0  0
   -2.1099   -0.4271    0.6339 C   0  0  0  0  0  0  0  0  0  0  0  0
   -2.3107    0.3062   -0.5342 C   0  0  0  0  0  0  0  0  0  0  0  0
   -1.2422    0.9778   -1.1258 C   0  0  0  0  0  0  0  0  0  0  0  0
    0.0300    0.9113   -0.5523 C   0  0  0  0  0  0  0  0  0  0  0  0
    0.2419    0.1656    0.6118 C   0  0  0  0  0  0  0  0  0  0  0  0
    1.8485    0.0679    1.3810 S   0  0  0  0  0  0  0  0  0  0  0  0
    2.8113   -0.6116    0.0040 C   0  0  0  0  0  0  0  0  0  0  0  0
  1  2  2  0
  2  3  1  0
  3  4  2  0
  4  5  1  0
  5  6  2  0
  6  7  1  0
  7  8  1  0
  6  1  1  0
M  END
>  <target>  (858) 
-2.39

$$$$

     RDKit          3D

 23 25  0  0  0  0  0  0  0  0999 V2000
   -0.1193    2.9140    1.5858 C   0  0  0  0  0  0  0  0  0  0  0  0
    0.8119    2.3369    0.5188 C   0  0  0  0  0  0  0  0  0  0  0  0
    0.7603    0.8596    0.5009 N   0  0  0  0  0  0  0  0  0  0  0  0
   -0.4515    0.3243    0.0004 C   0  0  0  0  0  0  0  0  0  0  0  0
   -1.2920    1.1603   -0.6682 N   0  0  0  0  0  0  0  0  0  0  0  0
   -2.4926    0.7263   -1.0972 C   0  0  0  0  0  0  0  0  0  0  0  0
   -3.3554    1.7020   -1.8380 C   0  0  0  0  0  0  0  0  0  0  0  0
   -2.9277   -0.5614   -0.8618 C   0  0  0  0  0  0  0  0  0  0  0  0
   -2.0949   -1.4461   -0.1630 C   0  0  0  0  0  0  0  0  0  0  0  0
   -2.5812   -2.8552    0.0417 C   0  0  0  0  0  0  0  0  0  0  0  0
   -3.9400   -2.9534    0.0867 F   0  0  0  0  0  0  0  0  0  0  0  0
   -2.1813   -3.6892   -0.9562 F   0  0  0  0  0  0  0  0  0  0  0  0
   -2.1366   -3.4185    1.2009 F   0  0  0  0  0  0  0  0  0  0  0  0
   -0.8183   -1.0116    0.2536 C   0  0  0  0  0  0  0  0  0  0  0  0
   -0.0114   -1.9122    0.9767 N   0  0  0  0  0  0  0  0  0  0  0  0
    1.3422   -1.9435    1.1776 C   0  0  0  0  0  0  0  0  0  0  0  0
    1.8031   -2.8296    1.8997 O   0  0  0  0  0  0  0  0  0  0  0  0
    2.2699   -1.0606    0.4554 C   0  0  0  0  0  0  0  0  0  0  0  0
    3.5280   -1.5959    0.1252 C   0  0  0  0  0  0  0  0  0  0  0  0
    4.4767   -0.8086   -0.5096 C   0  0  0  0  0  0  0  0  0  0  0  0
    4.1376    0.4980   -0.7797 C   0  0  0  0  0  0  0  0  0  0  0  0
    2.9420    1.0398   -0.4597 N   0  0  0  0  0  0  0  0  0  0  0  0
    1.9969    0.2700    0.1555 C   0  0  0  0  0  0  0  0  0  0  0  0
  1  2  1  0
  2  3  1  0
  3  4  1  0
  4  5  2  0
  5  6  1  0
  6  7  1  0
  6  8  2  0
  8  9  1  0
  9 10  1  0
 10 11  1  0
 10 12  1  0
 10 13  1  0
  9 14  2  0
 14 15  1  0
 15 16  1  0
 16 17  2  0
 16 18  1  0
 18 19  2  0
 19 20  1  0
 20 21  2  0
 21 22  1  0
 22 23  2  0
 14  4  1  0
 23  3  1  0
 23 18  1  0
M  END
>  <target>  (859) 
-4.207

$$$$

     RDKit          3D

  6  5  0  0  0  0  0  0  0  0999 V2000
   -2.7717    0.3195   -1.0653 C   0  0  0  0  0  0  0  0  0  0  0  0
   -1.8244   -0.4334   -0.1448 C   0  0  0  0  0  0  0  0  0  0  0  0
   -0.4426    0.2209   -0.1059 C   0  0  0  0  0  0  0  0  0  0  0  0
    0.5062   -0.5438    0.8198 C   0  0  0  0  0  0  0  0  0  0  0  0
    1.8718    0.1282    0.9777 C   0  0  0  0  0  0  0  0  0  0  0  0
    2.6861    0.1585   -0.3064 C   0  0  0  0  0  0  0  0  0  0  0  0
  1  2  1  0
  2  3  1  0
  3  4  1  0
  4  5  1  0
  5  6  1  0
M  END
>  <target>  (860) 
-3.84

$$$$

     RDKit          3D

 10 10  0  0  0  0  0  0  0  0999 V2000
    3.2331    0.2236    0.2488 C   0  0  0  0  0  0  0  0  0  0  0  0
    1.8253    0.4625    0.2011 O   0  0  0  0  0  0  0  0  0  0  0  0
    1.0720   -0.6553    0.3517 C   0  0  0  0  0  0  0  0  0  0  0  0
    1.4957   -1.7879    0.5159 O   0  0  0  0  0  0  0  0  0  0  0  0
   -0.3675   -0.3229    0.2905 C   0  0  0  0  0  0  0  0  0  0  0  0
   -0.8588    0.9720    0.1026 C   0  0  0  0  0  0  0  0  0  0  0  0
   -2.2363    1.1826    0.0593 C   0  0  0  0  0  0  0  0  0  0  0  0
   -3.0758    0.0894    0.2055 C   0  0  0  0  0  0  0  0  0  0  0  0
   -2.6353   -1.1741    0.3885 N   0  0  0  0  0  0  0  0  0  0  0  0
   -1.2903   -1.3524    0.4269 C   0  0  0  0  0  0  0  0  0  0  0  0
  1  2  1  0
  2  3  1  0
  3  4  2  0
  3  5  1  0
  5  6  2  0
  6  7  1  0
  7  8  2  0
  8  9  1  0
  9 10  2  0
 10  5  1  0
M  END
>  <target>  (861) 
-0.46

$$$$

     RDKit          3D

 27 29  0  0  0  0  0  0  0  0999 V2000
    5.2246   -1.3214   -2.0974 N   0  0  0  0  0  0  0  0  0  0  0  0
    5.0412    0.1144   -1.2469 S   0  0  0  0  0  0  0  0  0  0  0  0
    5.9244    0.0237   -0.1120 O   0  0  0  0  0  0  0  0  0  0  0  0
    5.1222    1.1457   -2.2507 O   0  0  0  0  0  0  0  0  0  0  0  0
    3.3709    0.0536   -0.6462 C   0  0  0  0  0  0  0  0  0  0  0  0
    2.7360   -1.1874   -0.5293 C   0  0  0  0  0  0  0  0  0  0  0  0
    1.4079   -1.2394   -0.0955 C   0  0  0  0  0  0  0  0  0  0  0  0
    0.6776   -0.0928    0.2134 C   0  0  0  0  0  0  0  0  0  0  0  0
   -0.6169   -0.1191    0.7457 N   0  0  0  0  0  0  0  0  0  0  0  0
   -1.4299   -1.2983    0.4888 C   0  0  0  0  0  0  0  0  0  0  0  0
   -2.7826   -1.1935    1.2282 C   0  0  0  0  0  0  0  0  0  0  0  0
   -3.6676   -0.0914    0.6901 C   0  0  0  0  0  0  0  0  0  0  0  0
   -4.4005   -0.2807   -0.4894 C   0  0  0  0  0  0  0  0  0  0  0  0
   -5.1889    0.7502   -1.0026 C   0  0  0  0  0  0  0  0  0  0  0  0
   -5.2527    1.9764   -0.3437 C   0  0  0  0  0  0  0  0  0  0  0  0
   -4.5320    2.1728    0.8324 C   0  0  0  0  0  0  0  0  0  0  0  0
   -3.7437    1.1440    1.3491 C   0  0  0  0  0  0  0  0  0  0  0  0
   -0.7060   -2.4379    1.0124 N   0  0  0  0  0  0  0  0  0  0  0  0
    0.6401   -2.8104    0.0935 S   0  0  0  0  0  0  0  0  0  0  0  0
    0.1985   -3.2317   -1.2165 O   0  0  0  0  0  0  0  0  0  0  0  0
    1.4965   -3.6266    0.9237 O   0  0  0  0  0  0  0  0  0  0  0  0
    1.3485    1.1356    0.1302 C   0  0  0  0  0  0  0  0  0  0  0  0
    2.6913    1.2355   -0.3016 C   0  0  0  0  0  0  0  0  0  0  0  0
    3.3311    2.6046   -0.3763 C   0  0  0  0  0  0  0  0  0  0  0  0
    3.3083    3.1235   -1.6303 F   0  0  0  0  0  0  0  0  0  0  0  0
    2.6800    3.5185    0.4025 F   0  0  0  0  0  0  0  0  0  0  0  0
    4.6181    2.6317    0.0509 F   0  0  0  0  0  0  0  0  0  0  0  0
  1  2  1  0
  2  3  2  0
  2  4  2  0
  2  5  1  0
  5  6  2  0
  6  7  1  0
  7  8  2  0
  8  9  1  0
  9 10  1  0
 10 11  1  0
 11 12  1  0
 12 13  2  0
 13 14  1  0
 14 15  2  0
 15 16  1  0
 16 17  2  0
 10 18  1  0
 18 19  1  0
 19 20  2  0
 19 21  2  0
  8 22  1  0
 22 23  2  0
 23 24  1  0
 24 25  1  0
 24 26  1  0
 24 27  1  0
 17 12  1  0
 19  7  1  0
 23  5  1  0
M  END
>  <target>  (862) 
-3.59

$$$$

     RDKit          3D

 18 19  0  0  0  0  0  0  0  0999 V2000
   -5.2693    0.1143    0.3260 Cl  0  0  0  0  0  0  0  0  0  0  0  0
   -3.5476    0.1102    0.1928 C   0  0  0  0  0  0  0  0  0  0  0  0
   -2.8292   -0.7096    1.0662 C   0  0  0  0  0  0  0  0  0  0  0  0
   -1.4336   -0.7545    1.0021 C   0  0  0  0  0  0  0  0  0  0  0  0
   -0.7350    0.0219    0.0655 C   0  0  0  0  0  0  0  0  0  0  0  0
   -1.4665    0.8403   -0.8097 C   0  0  0  0  0  0  0  0  0  0  0  0
   -2.8644    0.8870   -0.7477 C   0  0  0  0  0  0  0  0  0  0  0  0
   -3.6818    1.9221   -1.8640 Cl  0  0  0  0  0  0  0  0  0  0  0  0
    0.7327   -0.0276   -0.0053 C   0  0  0  0  0  0  0  0  0  0  0  0
    1.3284   -0.9212   -0.9095 C   0  0  0  0  0  0  0  0  0  0  0  0
    2.7179   -1.0160   -1.0227 C   0  0  0  0  0  0  0  0  0  0  0  0
    3.3340   -2.1547   -2.1705 Cl  0  0  0  0  0  0  0  0  0  0  0  0
    3.5497   -0.2144   -0.2298 C   0  0  0  0  0  0  0  0  0  0  0  0
    5.2768   -0.3450   -0.3814 Cl  0  0  0  0  0  0  0  0  0  0  0  0
    2.9738    0.6892    0.6825 C   0  0  0  0  0  0  0  0  0  0  0  0
    3.9931    1.6935    1.6761 Cl  0  0  0  0  0  0  0  0  0  0  0  0
    1.5701    0.7816    0.7930 C   0  0  0  0  0  0  0  0  0  0  0  0
    0.8429    1.8995    1.9142 Cl  0  0  0  0  0  0  0  0  0  0  0  0
  1  2  1  0
  2  3  2  0
  3  4  1  0
  4  5  2  0
  5  6  1  0
  6  7  2  0
  7  8  1  0
  5  9  1  0
  9 10  2  0
 10 11  1  0
 11 12  1  0
 11 13  2  0
 13 14  1  0
 13 15  1  0
 15 16  1  0
 15 17  2  0
 17 18  1  0
  7  2  1  0
 17  9  1  0
M  END
>  <target>  (863) 
-7.82

$$$$

     RDKit          3D

 18 19  0  0  0  0  0  0  0  0999 V2000
   -2.8578   -1.2655   -1.1986 C   0  0  0  0  0  0  0  0  0  0  0  0
   -2.1978   -0.1859   -0.3488 C   0  0  0  0  0  0  0  0  0  0  0  0
   -1.9672   -0.7022    0.9545 O   0  0  0  0  0  0  0  0  0  0  0  0
   -0.6241   -0.7360    1.1930 C   0  0  0  0  0  0  0  0  0  0  0  0
   -0.2044   -1.1906    2.2465 O   0  0  0  0  0  0  0  0  0  0  0  0
    0.0831   -0.2440    0.1314 N   0  0  0  0  0  0  0  0  0  0  0  0
   -0.7999    0.1137   -0.8552 C   0  0  0  0  0  0  0  0  0  0  0  0
   -0.5759    0.5976   -1.9583 O   0  0  0  0  0  0  0  0  0  0  0  0
    1.5103   -0.1260    0.0583 C   0  0  0  0  0  0  0  0  0  0  0  0
    2.3288   -0.3361    1.1827 C   0  0  0  0  0  0  0  0  0  0  0  0
    3.7226   -0.2181    1.1055 C   0  0  0  0  0  0  0  0  0  0  0  0
    4.6791   -0.4790    2.5136 Cl  0  0  0  0  0  0  0  0  0  0  0  0
    4.3448    0.1107   -0.0891 C   0  0  0  0  0  0  0  0  0  0  0  0
    3.5571    0.3228   -1.2101 C   0  0  0  0  0  0  0  0  0  0  0  0
    4.3064    0.7269   -2.7071 Cl  0  0  0  0  0  0  0  0  0  0  0  0
    2.1626    0.2085   -1.1421 C   0  0  0  0  0  0  0  0  0  0  0  0
   -3.0211    1.0802   -0.2997 C   0  0  0  0  0  0  0  0  0  0  0  0
   -3.5581    1.6441    0.7924 C   0  0  0  0  0  0  0  0  0  0  0  0
  1  2  1  0
  2  3  1  0
  3  4  1  0
  4  5  2  0
  4  6  1  0
  6  7  1  0
  7  8  2  0
  6  9  1  0
  9 10  2  0
 10 11  1  0
 11 12  1  0
 11 13  2  0
 13 14  1  0
 14 15  1  0
 14 16  2  0
  2 17  1  0
 17 18  2  0
  7  2  1  0
 16  9  1  0
M  END
>  <target>  (864) 
-4.925

$$$$

     RDKit          3D

 16 16  0  0  0  0  0  0  0  0999 V2000
    3.9544   -2.4146    0.4842 C   0  0  0  0  0  0  0  0  0  0  0  0
    2.9450   -1.9571   -0.5570 C   0  0  0  0  0  0  0  0  0  0  0  0
    2.2921   -0.7449   -0.0936 N   0  0  0  0  0  0  0  0  0  0  0  0
    1.2941   -0.2578   -0.9277 C   0  0  0  0  0  0  0  0  0  0  0  0
    1.3791   -0.4097   -2.2356 N   0  0  0  0  0  0  0  0  0  0  0  0
    0.3570    0.1122   -2.8922 C   0  0  0  0  0  0  0  0  0  0  0  0
    0.3950   -0.0547   -4.5931 Cl  0  0  0  0  0  0  0  0  0  0  0  0
   -0.7042    0.7308   -2.3954 N   0  0  0  0  0  0  0  0  0  0  0  0
   -0.6853    0.8295   -1.0814 C   0  0  0  0  0  0  0  0  0  0  0  0
   -1.7761    1.4771   -0.5254 N   0  0  0  0  0  0  0  0  0  0  0  0
   -2.2409    1.0925    0.8186 C   0  0  0  0  0  0  0  0  0  0  0  0
   -1.3502    1.7302    1.8980 C   0  0  0  0  0  0  0  0  0  0  0  0
   -3.6596    1.6821    0.9769 C   0  0  0  0  0  0  0  0  0  0  0  0
   -2.3356   -0.3802    1.0278 C   0  0  0  0  0  0  0  0  0  0  0  0
   -2.4272   -1.5276    1.1873 N   0  0  0  0  0  0  0  0  0  0  0  0
    0.2853    0.3523   -0.3145 N   0  0  0  0  0  0  0  0  0  0  0  0
  1  2  1  0
  2  3  1  0
  3  4  1  0
  4  5  2  0
  5  6  1  0
  6  7  1  0
  6  8  2  0
  8  9  1  0
  9 10  1  0
 10 11  1  0
 11 12  1  0
 11 13  1  0
 11 14  1  0
 14 15  3  0
  9 16  2  0
 16  4  1  0
M  END
>  <target>  (865) 
-3.15

$$$$

     RDKit          3D

 18 21  0  0  0  0  0  0  0  0999 V2000
   -0.0739    3.7824   -0.0592 C   0  0  0  0  0  0  0  0  0  0  0  0
    1.2840    3.5586   -0.0554 C   0  0  0  0  0  0  0  0  0  0  0  0
    1.7565    2.2473   -0.0347 C   0  0  0  0  0  0  0  0  0  0  0  0
    0.9024    1.1067   -0.0171 C   0  0  0  0  0  0  0  0  0  0  0  0
   -0.4995    1.3377   -0.0211 C   0  0  0  0  0  0  0  0  0  0  0  0
   -0.9423    2.6921   -0.0424 C   0  0  0  0  0  0  0  0  0  0  0  0
   -1.4097    0.2281   -0.0039 C   0  0  0  0  0  0  0  0  0  0  0  0
   -2.8247    0.3973   -0.0070 C   0  0  0  0  0  0  0  0  0  0  0  0
   -3.7242   -0.6675    0.0095 C   0  0  0  0  0  0  0  0  0  0  0  0
   -3.2391   -1.9552    0.0298 C   0  0  0  0  0  0  0  0  0  0  0  0
   -1.8605   -2.1620    0.0334 C   0  0  0  0  0  0  0  0  0  0  0  0
   -0.9089   -1.1014    0.0170 C   0  0  0  0  0  0  0  0  0  0  0  0
    0.5073   -1.3348    0.0210 C   0  0  0  0  0  0  0  0  0  0  0  0
    1.0682   -2.6446    0.0417 C   0  0  0  0  0  0  0  0  0  0  0  0
    2.4402   -2.8911    0.0459 C   0  0  0  0  0  0  0  0  0  0  0  0
    3.3130   -1.8272    0.0295 C   0  0  0  0  0  0  0  0  0  0  0  0
    2.8028   -0.5301    0.0090 C   0  0  0  0  0  0  0  0  0  0  0  0
    1.4084   -0.2363    0.0041 C   0  0  0  0  0  0  0  0  0  0  0  0
  1  2  2  0
  2  3  1  0
  3  4  2  0
  4  5  1  0
  5  6  2  0
  5  7  1  0
  7  8  2  0
  8  9  1  0
  9 10  2  0
 10 11  1  0
 11 12  2  0
 12 13  1  0
 13 14  2  0
 14 15  1  0
 15 16  2  0
 16 17  1  0
 17 18  2  0
  6  1  1  0
 18  4  1  0
 12  7  1  0
 18 13  1  0
M  END
>  <target>  (866) 
-6.726

$$$$

     RDKit          3D

 20 21  0  0  0  0  0  0  0  0999 V2000
   -0.1383   -3.1990    1.5079 C   0  0  0  0  0  0  0  0  0  0  0  0
    0.7905   -2.1979    0.8962 C   0  0  0  0  0  0  0  0  0  0  0  0
    0.4655   -1.1344    0.1306 C   0  0  0  0  0  0  0  0  0  0  0  0
   -0.9095   -0.7947   -0.2488 C   0  0  0  0  0  0  0  0  0  0  0  0
   -1.6448   -1.5136   -1.1237 C   0  0  0  0  0  0  0  0  0  0  0  0
   -1.2288   -2.7409   -1.8719 C   0  0  0  0  0  0  0  0  0  0  0  0
   -1.5547    0.4178    0.3048 C   0  0  0  0  0  0  0  0  0  0  0  0
   -1.5700    1.6113   -0.4315 C   0  0  0  0  0  0  0  0  0  0  0  0
   -2.1629    2.7604    0.0969 C   0  0  0  0  0  0  0  0  0  0  0  0
   -2.7367    2.7113    1.3637 C   0  0  0  0  0  0  0  0  0  0  0  0
   -3.3254    3.8090    1.9185 O   0  0  0  0  0  0  0  0  0  0  0  0
   -2.7256    1.5372    2.1083 C   0  0  0  0  0  0  0  0  0  0  0  0
   -2.1324    0.3891    1.5805 C   0  0  0  0  0  0  0  0  0  0  0  0
    1.5889   -0.2689   -0.2957 C   0  0  0  0  0  0  0  0  0  0  0  0
    2.1302   -0.3982   -1.5810 C   0  0  0  0  0  0  0  0  0  0  0  0
    3.1782    0.4294   -1.9878 C   0  0  0  0  0  0  0  0  0  0  0  0
    3.6798    1.3861   -1.1126 C   0  0  0  0  0  0  0  0  0  0  0  0
    4.7025    2.1739   -1.5519 O   0  0  0  0  0  0  0  0  0  0  0  0
    3.1511    1.5330    0.1662 C   0  0  0  0  0  0  0  0  0  0  0  0
    2.1030    0.7043    0.5735 C   0  0  0  0  0  0  0  0  0  0  0  0
  1  2  1  0
  2  3  2  3
  3  4  1  0
  4  5  2  3
  5  6  1  0
  4  7  1  0
  7  8  2  0
  8  9  1  0
  9 10  2  0
 10 11  1  0
 10 12  1  0
 12 13  2  0
  3 14  1  0
 14 15  2  0
 15 16  1  0
 16 17  2  0
 17 18  1  0
 17 19  1  0
 19 20  2  0
 13  7  1  0
 20 14  1  0
M  END
>  <target>  (867) 
-4.95

$$$$

     RDKit          3D

 28 28  0  0  0  0  0  0  0  0999 V2000
   -7.6152    2.6476   -0.6061 C   0  0  0  0  0  0  0  0  0  0  0  0
   -7.3770    1.3537   -1.3687 C   0  0  0  0  0  0  0  0  0  0  0  0
   -6.8276    0.2229   -0.4963 C   0  0  0  0  0  0  0  0  0  0  0  0
   -5.4871    0.5047    0.1947 C   0  0  0  0  0  0  0  0  0  0  0  0
   -4.3151    0.9077   -0.7321 C   0  0  0  0  0  0  0  0  0  0  0  0
   -4.0072   -0.2075   -1.7548 C   0  0  0  0  0  0  0  0  0  0  0  0
   -2.8431    0.1118   -2.6834 C   0  0  0  0  0  0  0  0  0  0  0  0
   -3.0893    1.2787    0.1259 C   0  0  0  0  0  0  0  0  0  0  0  0
   -2.5955    0.1122    0.7956 O   0  0  0  0  0  0  0  0  0  0  0  0
   -1.4504    0.3180    1.4872 C   0  0  0  0  0  0  0  0  0  0  0  0
   -0.8563    1.3702    1.6436 O   0  0  0  0  0  0  0  0  0  0  0  0
   -1.0091   -0.9651    2.0593 C   0  0  0  0  0  0  0  0  0  0  0  0
   -1.8957   -1.7034    2.8567 C   0  0  0  0  0  0  0  0  0  0  0  0
   -1.4640   -2.8795    3.4730 C   0  0  0  0  0  0  0  0  0  0  0  0
   -0.1505   -3.3185    3.3010 C   0  0  0  0  0  0  0  0  0  0  0  0
    0.7341   -2.5881    2.5046 C   0  0  0  0  0  0  0  0  0  0  0  0
    0.3046   -1.4073    1.8812 C   0  0  0  0  0  0  0  0  0  0  0  0
    1.2162   -0.6949    0.9682 C   0  0  0  0  0  0  0  0  0  0  0  0
    0.9155   -0.3697   -0.1670 O   0  0  0  0  0  0  0  0  0  0  0  0
    2.4004   -0.5005    1.5966 O   0  0  0  0  0  0  0  0  0  0  0  0
    3.3858    0.2236    0.8411 C   0  0  0  0  0  0  0  0  0  0  0  0
    4.2038   -0.7276   -0.0535 C   0  0  0  0  0  0  0  0  0  0  0  0
    4.9529   -1.7668    0.8085 C   0  0  0  0  0  0  0  0  0  0  0  0
    5.7516   -2.7769   -0.0031 C   0  0  0  0  0  0  0  0  0  0  0  0
    5.1060    0.0660   -1.0235 C   0  0  0  0  0  0  0  0  0  0  0  0
    6.2131    0.8890   -0.3552 C   0  0  0  0  0  0  0  0  0  0  0  0
    7.1408    1.5771   -1.3613 C   0  0  0  0  0  0  0  0  0  0  0  0
    6.4513    2.6490   -2.1912 C   0  0  0  0  0  0  0  0  0  0  0  0
  1  2  1  0
  2  3  1  0
  3  4  1  0
  4  5  1  0
  5  6  1  0
  6  7  1  0
  5  8  1  0
  8  9  1  0
  9 10  1  0
 10 11  2  0
 10 12  1  0
 12 13  2  0
 13 14  1  0
 14 15  2  0
 15 16  1  0
 16 17  2  0
 17 18  1  0
 18 19  2  0
 18 20  1  0
 20 21  1  0
 21 22  1  0
 22 23  1  0
 23 24  1  0
 22 25  1  0
 25 26  1  0
 26 27  1  0
 27 28  1  0
 17 12  1  0
M  END
>  <target>  (868) 
-6.96

$$$$

     RDKit          3D

  8  8  0  0  0  0  0  0  0  0999 V2000
    2.4328    0.0033   -0.5636 C   0  0  0  0  0  0  0  0  0  0  0  0
    1.5902   -0.0664    0.7001 C   0  0  0  0  0  0  0  0  0  0  0  0
    0.1185   -0.1090    0.3835 C   0  0  0  0  0  0  0  0  0  0  0  0
   -0.6019    1.0699    0.2049 C   0  0  0  0  0  0  0  0  0  0  0  0
   -1.9565    0.9893   -0.1056 C   0  0  0  0  0  0  0  0  0  0  0  0
   -2.5525   -0.2590   -0.2331 C   0  0  0  0  0  0  0  0  0  0  0  0
   -1.7637   -1.3807   -0.0452 C   0  0  0  0  0  0  0  0  0  0  0  0
   -0.4476   -1.3334    0.2563 N   0  0  0  0  0  0  0  0  0  0  0  0
  1  2  1  0
  2  3  1  0
  3  4  2  0
  4  5  1  0
  5  6  2  0
  6  7  1  0
  7  8  2  0
  8  3  1  0
M  END
>  <target>  (869) 
0.51

$$$$

     RDKit          3D

 13 12  0  0  0  0  0  0  0  0999 V2000
   -2.3063    1.2634   -1.6956 C   0  0  0  0  0  0  0  0  0  0  0  0
   -1.1102    1.3469   -0.9484 O   0  0  0  0  0  0  0  0  0  0  0  0
   -0.6385    0.0105   -0.1908 P   0  0  0  0  0  0  0  0  0  0  0  0
   -0.4636   -1.1836   -1.0716 O   0  0  0  0  0  0  0  0  0  0  0  0
   -1.7018   -0.1517    1.0029 O   0  0  0  0  0  0  0  0  0  0  0  0
   -1.5379   -1.2710    1.8496 C   0  0  0  0  0  0  0  0  0  0  0  0
    0.6984    0.4827    0.5624 O   0  0  0  0  0  0  0  0  0  0  0  0
    1.8740    0.5376   -0.2328 C   0  0  0  0  0  0  0  0  0  0  0  0
    2.4345    2.4275   -0.2978 Br  0  0  0  0  0  0  0  0  0  0  0  0
    2.9812   -0.3924    0.3106 C   0  0  0  0  0  0  0  0  0  0  0  0
    3.5560    0.0627    1.9454 Cl  0  0  0  0  0  0  0  0  0  0  0  0
    2.3942   -2.0919    0.4036 Cl  0  0  0  0  0  0  0  0  0  0  0  0
    4.5307   -0.4187   -0.9028 Br  0  0  0  0  0  0  0  0  0  0  0  0
  1  2  1  0
  2  3  1  0
  3  4  2  0
  3  5  1  0
  5  6  1  0
  3  7  1  0
  7  8  1  0
  8  9  1  0
  8 10  1  0
 10 11  1  0
 10 12  1  0
 10 13  1  0
M  END
>  <target>  (870) 
-2.28

$$$$

     RDKit          3D

 12 13  0  0  0  0  0  0  0  0999 V2000
    3.5545    0.0763    0.0697 C   0  0  0  0  0  0  0  0  0  0  0  0
    2.8788    0.1352   -1.1464 C   0  0  0  0  0  0  0  0  0  0  0  0
    1.4817    0.1057   -1.1728 C   0  0  0  0  0  0  0  0  0  0  0  0
    0.7359    0.0158    0.0144 C   0  0  0  0  0  0  0  0  0  0  0  0
    1.4378   -0.0430    1.2301 C   0  0  0  0  0  0  0  0  0  0  0  0
    2.8348   -0.0124    1.2585 C   0  0  0  0  0  0  0  0  0  0  0  0
   -0.7359   -0.0158   -0.0144 C   0  0  0  0  0  0  0  0  0  0  0  0
   -1.4688    0.9827   -0.6776 C   0  0  0  0  0  0  0  0  0  0  0  0
   -2.8659    0.9538   -0.7050 C   0  0  0  0  0  0  0  0  0  0  0  0
   -3.5545   -0.0763   -0.0697 C   0  0  0  0  0  0  0  0  0  0  0  0
   -2.8477   -1.0765    0.5929 C   0  0  0  0  0  0  0  0  0  0  0  0
   -1.4507   -1.0454    0.6203 C   0  0  0  0  0  0  0  0  0  0  0  0
  1  2  2  0
  2  3  1  0
  3  4  2  0
  4  5  1  0
  5  6  2  0
  4  7  1  0
  7  8  2  0
  8  9  1  0
  9 10  2  0
 10 11  1  0
 11 12  2  0
  6  1  1  0
 12  7  1  0
M  END
>  <target>  (871) 
-4.345

$$$$

     RDKit          3D

 18 19  0  0  0  0  0  0  0  0999 V2000
    5.2689   -0.2156    0.2494 Cl  0  0  0  0  0  0  0  0  0  0  0  0
    3.5525   -0.1454    0.1682 C   0  0  0  0  0  0  0  0  0  0  0  0
    2.9366    0.9050   -0.5025 C   0  0  0  0  0  0  0  0  0  0  0  0
    1.5415    0.9609   -0.5677 C   0  0  0  0  0  0  0  0  0  0  0  0
    0.8419    2.2978   -1.4195 Cl  0  0  0  0  0  0  0  0  0  0  0  0
    0.7386   -0.0302    0.0350 C   0  0  0  0  0  0  0  0  0  0  0  0
    1.3976   -1.0812    0.7069 C   0  0  0  0  0  0  0  0  0  0  0  0
    0.5142   -2.3533    1.4836 Cl  0  0  0  0  0  0  0  0  0  0  0  0
    2.7925   -1.1395    0.7736 C   0  0  0  0  0  0  0  0  0  0  0  0
   -0.7386    0.0302   -0.0350 C   0  0  0  0  0  0  0  0  0  0  0  0
   -1.4474   -0.5793   -1.0915 C   0  0  0  0  0  0  0  0  0  0  0  0
   -0.6275   -1.4287   -2.3598 Cl  0  0  0  0  0  0  0  0  0  0  0  0
   -2.8423   -0.5230   -1.1588 C   0  0  0  0  0  0  0  0  0  0  0  0
   -3.5525    0.1454   -0.1682 C   0  0  0  0  0  0  0  0  0  0  0  0
   -5.2689    0.2156   -0.2494 Cl  0  0  0  0  0  0  0  0  0  0  0  0
   -2.8868    0.7574    0.8876 C   0  0  0  0  0  0  0  0  0  0  0  0
   -1.4918    0.6996    0.9524 C   0  0  0  0  0  0  0  0  0  0  0  0
   -0.7286    1.4842    2.2956 Cl  0  0  0  0  0  0  0  0  0  0  0  0
  1  2  1  0
  2  3  2  0
  3  4  1  0
  4  5  1  0
  4  6  2  0
  6  7  1  0
  7  8  1  0
  7  9  2  0
  6 10  1  0
 10 11  2  0
 11 12  1  0
 11 13  1  0
 13 14  2  0
 14 15  1  0
 14 16  1  0
 16 17  2  0
 17 18  1  0
  9  2  1  0
 17 10  1  0
M  END
>  <target>  (872) 
-8.71

$$$$

     RDKit          3D

 15 15  0  0  0  0  0  0  0  0999 V2000
    3.4079   -1.0159   -0.4877 C   0  0  0  0  0  0  0  0  0  0  0  0
    2.1058   -1.3868   -1.0212 N   0  0  0  0  0  0  0  0  0  0  0  0
    1.8691   -2.8077   -1.2274 C   0  0  0  0  0  0  0  0  0  0  0  0
    1.0305   -0.7071   -0.4308 C   0  0  0  0  0  0  0  0  0  0  0  0
    1.2626    0.4526    0.1713 N   0  0  0  0  0  0  0  0  0  0  0  0
    0.2245    1.0816    0.7082 C   0  0  0  0  0  0  0  0  0  0  0  0
   -1.0097    0.5956    0.6576 N   0  0  0  0  0  0  0  0  0  0  0  0
   -1.1859   -0.5608    0.0302 C   0  0  0  0  0  0  0  0  0  0  0  0
   -0.1846   -1.2326   -0.5245 N   0  0  0  0  0  0  0  0  0  0  0  0
   -2.4749   -1.1070   -0.0286 N   0  0  0  0  0  0  0  0  0  0  0  0
   -2.6712   -2.0651   -1.1051 C   0  0  0  0  0  0  0  0  0  0  0  0
   -3.5461   -0.1511    0.2015 C   0  0  0  0  0  0  0  0  0  0  0  0
    0.4456    2.2937    1.3754 N   0  0  0  0  0  0  0  0  0  0  0  0
    1.6636    2.9826    0.9788 C   0  0  0  0  0  0  0  0  0  0  0  0
   -0.7436    3.1124    1.5488 C   0  0  0  0  0  0  0  0  0  0  0  0
  1  2  1  0
  2  3  1  0
  2  4  1  0
  4  5  2  0
  5  6  1  0
  6  7  2  0
  7  8  1  0
  8  9  2  0
  8 10  1  0
 10 11  1  0
 10 12  1  0
  6 13  1  0
 13 14  1  0
 13 15  1  0
  9  4  1  0
M  END
>  <target>  (873) 
-3.364

$$$$

     RDKit          3D

  8  7  0  0  0  0  0  0  0  0999 V2000
    1.6346    0.6871    1.4204 C   0  0  0  0  0  0  0  0  0  0  0  0
    1.3092   -0.3626    0.3584 C   0  0  0  0  0  0  0  0  0  0  0  0
    2.5359   -0.5751   -0.5369 C   0  0  0  0  0  0  0  0  0  0  0  0
    0.0925    0.0056   -0.5214 C   0  0  0  0  0  0  0  0  0  0  0  0
   -1.2721    0.1809    0.1842 C   0  0  0  0  0  0  0  0  0  0  0  0
   -1.6332   -1.0083    1.0745 C   0  0  0  0  0  0  0  0  0  0  0  0
   -2.3702    0.3855   -0.8675 C   0  0  0  0  0  0  0  0  0  0  0  0
   -1.2544    1.3480    1.0065 O   0  0  0  0  0  0  0  0  0  0  0  0
  1  2  1  0
  2  3  1  0
  2  4  1  0
  4  5  1  0
  5  6  1  0
  5  7  1  0
  5  8  1  0
M  END
>  <target>  (874) 
-0.92

$$$$

     RDKit          3D

 15 16  0  0  0  0  0  0  0  0999 V2000
    4.6232   -0.3515    0.8074 O   0  0  0  0  0  0  0  0  0  0  0  0
    3.4142   -0.2737    0.6159 C   0  0  0  0  0  0  0  0  0  0  0  0
    2.7169   -1.3002    0.0598 N   0  0  0  0  0  0  0  0  0  0  0  0
    1.5583   -1.1253   -0.6484 C   0  0  0  0  0  0  0  0  0  0  0  0
    1.2636   -1.9141   -1.5423 O   0  0  0  0  0  0  0  0  0  0  0  0
    0.6835    0.0509   -0.2089 C   0  0  0  0  0  0  0  0  0  0  0  0
   -0.0596   -0.3672    1.0869 C   0  0  0  0  0  0  0  0  0  0  0  0
   -1.3359   -1.1855    0.8789 C   0  0  0  0  0  0  0  0  0  0  0  0
   -2.5793   -0.3172    0.7054 C   0  0  0  0  0  0  0  0  0  0  0  0
   -2.6810    0.4013   -0.6340 C   0  0  0  0  0  0  0  0  0  0  0  0
   -1.4830    1.2803   -0.9845 C   0  0  0  0  0  0  0  0  0  0  0  0
   -0.2440    0.4693   -1.3743 C   0  0  0  0  0  0  0  0  0  0  0  0
    1.6021    1.2161    0.1629 C   0  0  0  0  0  0  0  0  0  0  0  0
    1.3647    2.3944   -0.0875 O   0  0  0  0  0  0  0  0  0  0  0  0
    2.7311    0.8766    0.8571 N   0  0  0  0  0  0  0  0  0  0  0  0
  1  2  2  0
  2  3  1  0
  3  4  1  0
  4  5  2  0
  4  6  1  0
  6  7  1  0
  7  8  1  0
  8  9  1  0
  9 10  1  0
 10 11  1  0
 11 12  1  0
  6 13  1  0
 13 14  2  0
 13 15  1  0
 12  6  1  0
 15  2  1  0
M  END
>  <target>  (875) 
-3.168

$$$$

     RDKit          3D

 12 12  0  0  0  0  0  0  0  0999 V2000
    2.5638    0.3565   -2.3354 O   0  0  0  0  0  0  0  0  0  0  0  0
    2.1611   -0.4949   -1.2631 C   0  0  0  0  0  0  0  0  0  0  0  0
    1.2235    0.2600   -0.3264 C   0  0  0  0  0  0  0  0  0  0  0  0
    0.0490    0.6721   -1.0658 O   0  0  0  0  0  0  0  0  0  0  0  0
   -1.0922    0.5074   -0.2042 C   0  0  0  0  0  0  0  0  0  0  0  0
   -1.8325    1.7238   -0.1353 O   0  0  0  0  0  0  0  0  0  0  0  0
   -2.0033   -0.5772   -0.8064 C   0  0  0  0  0  0  0  0  0  0  0  0
   -3.1511   -0.8001    0.0120 O   0  0  0  0  0  0  0  0  0  0  0  0
   -0.5586    0.1359    1.1916 C   0  0  0  0  0  0  0  0  0  0  0  0
   -0.2464    1.3418    1.9275 O   0  0  0  0  0  0  0  0  0  0  0  0
    0.7250   -0.5919    0.8382 C   0  0  0  0  0  0  0  0  0  0  0  0
    1.6299   -0.6082    1.9348 O   0  0  0  0  0  0  0  0  0  0  0  0
  1  2  1  0
  2  3  1  0
  3  4  1  0
  4  5  1  0
  5  6  1  0
  5  7  1  0
  7  8  1  0
  5  9  1  0
  9 10  1  0
  9 11  1  0
 11 12  1  0
 11  3  1  0
M  END
>  <target>  (876) 
0.64

$$$$

     RDKit          3D

  9  9  0  0  0  0  0  0  0  0999 V2000
    2.4352   -0.9820   -0.6401 C   0  0  0  0  0  0  0  0  0  0  0  0
    1.1570   -0.2834   -0.2809 C   0  0  0  0  0  0  0  0  0  0  0  0
    0.0208   -1.0258    0.0737 C   0  0  0  0  0  0  0  0  0  0  0  0
   -1.1872   -0.3873    0.3886 C   0  0  0  0  0  0  0  0  0  0  0  0
   -2.4031   -1.1911    0.7414 C   0  0  0  0  0  0  0  0  0  0  0  0
   -1.2595    1.0076    0.3109 C   0  0  0  0  0  0  0  0  0  0  0  0
   -0.1377    1.7430   -0.0549 C   0  0  0  0  0  0  0  0  0  0  0  0
   -0.2616    3.1004   -0.1158 O   0  0  0  0  0  0  0  0  0  0  0  0
    1.0668    1.1122   -0.3537 C   0  0  0  0  0  0  0  0  0  0  0  0
  1  2  1  0
  2  3  2  0
  3  4  1  0
  4  5  1  0
  4  6  2  0
  6  7  1  0
  7  8  1  0
  7  9  2  0
  9  2  1  0
M  END
>  <target>  (877) 
-1.4

$$$$

     RDKit          3D

 16 16  0  0  0  0  0  0  0  0999 V2000
   -5.7723   -1.3603   -2.2489 Cl  0  0  0  0  0  0  0  0  0  0  0  0
   -6.0836   -0.2179   -0.9270 C   0  0  0  0  0  0  0  0  0  0  0  0
   -4.8063    0.1944   -0.3470 C   0  0  0  0  0  0  0  0  0  0  0  0
   -3.7516    0.5278    0.1236 C   0  0  0  0  0  0  0  0  0  0  0  0
   -2.4503    0.9186    0.6801 C   0  0  0  0  0  0  0  0  0  0  0  0
   -1.4256    0.2371   -0.0466 O   0  0  0  0  0  0  0  0  0  0  0  0
   -0.1705    0.5228    0.3827 C   0  0  0  0  0  0  0  0  0  0  0  0
    0.0771    1.2876    1.3016 O   0  0  0  0  0  0  0  0  0  0  0  0
    0.7065   -0.1861   -0.3872 N   0  0  0  0  0  0  0  0  0  0  0  0
    2.1093   -0.2141   -0.3164 C   0  0  0  0  0  0  0  0  0  0  0  0
    2.8540    0.5237    0.6075 C   0  0  0  0  0  0  0  0  0  0  0  0
    4.2504    0.4451    0.6183 C   0  0  0  0  0  0  0  0  0  0  0  0
    4.9133   -0.3720   -0.2948 C   0  0  0  0  0  0  0  0  0  0  0  0
    4.1747   -1.1080   -1.2162 C   0  0  0  0  0  0  0  0  0  0  0  0
    4.9858   -2.1200   -2.3478 Cl  0  0  0  0  0  0  0  0  0  0  0  0
    2.7810   -1.0334   -1.2315 C   0  0  0  0  0  0  0  0  0  0  0  0
  1  2  1  0
  2  3  1  0
  3  4  3  0
  4  5  1  0
  5  6  1  0
  6  7  1  0
  7  8  2  0
  7  9  1  0
  9 10  1  0
 10 11  2  0
 11 12  1  0
 12 13  2  0
 13 14  1  0
 14 15  1  0
 14 16  2  0
 16 10  1  0
M  END
>  <target>  (878) 
-4.37

$$$$

     RDKit          3D

 11 11  0  0  0  0  0  0  0  0999 V2000
    3.4924    0.0156    0.2005 C   0  0  0  0  0  0  0  0  0  0  0  0
    2.0943   -0.3850    0.6017 C   0  0  0  0  0  0  0  0  0  0  0  0
    1.9095   -1.2042    1.4942 O   0  0  0  0  0  0  0  0  0  0  0  0
    1.1294    0.2483   -0.1611 N   0  0  0  0  0  0  0  0  0  0  0  0
   -0.2702    0.1087   -0.0631 C   0  0  0  0  0  0  0  0  0  0  0  0
   -0.9106   -0.7148    0.8659 C   0  0  0  0  0  0  0  0  0  0  0  0
   -2.3079   -0.7971    0.8989 C   0  0  0  0  0  0  0  0  0  0  0  0
   -3.0699   -0.0547    0.0019 C   0  0  0  0  0  0  0  0  0  0  0  0
   -4.7861   -0.1563    0.0431 Cl  0  0  0  0  0  0  0  0  0  0  0  0
   -2.4467    0.7707   -0.9290 C   0  0  0  0  0  0  0  0  0  0  0  0
   -1.0508    0.8515   -0.9603 C   0  0  0  0  0  0  0  0  0  0  0  0
  1  2  1  0
  2  3  2  0
  2  4  1  0
  4  5  1  0
  5  6  2  0
  6  7  1  0
  7  8  2  0
  8  9  1  0
  8 10  1  0
 10 11  2  0
 11  5  1  0
M  END
>  <target>  (879) 
-2.843

$$$$

     RDKit          3D

 19 20  0  0  0  0  0  0  0  0999 V2000
   -3.6247    0.4706   -2.7918 Cl  0  0  0  0  0  0  0  0  0  0  0  0
   -2.8308    0.1428   -1.3017 C   0  0  0  0  0  0  0  0  0  0  0  0
   -3.5811   -0.1949   -0.1787 C   0  0  0  0  0  0  0  0  0  0  0  0
   -2.9357   -0.4605    1.0294 C   0  0  0  0  0  0  0  0  0  0  0  0
   -1.5416   -0.3874    1.1099 C   0  0  0  0  0  0  0  0  0  0  0  0
   -0.8029   -0.7284    2.6369 Cl  0  0  0  0  0  0  0  0  0  0  0  0
   -0.7692   -0.0467   -0.0195 C   0  0  0  0  0  0  0  0  0  0  0  0
   -1.4389    0.2178   -1.2293 C   0  0  0  0  0  0  0  0  0  0  0  0
    0.7087    0.0399    0.0302 C   0  0  0  0  0  0  0  0  0  0  0  0
    1.5116   -1.0941   -0.2379 C   0  0  0  0  0  0  0  0  0  0  0  0
    0.7360   -2.5999   -0.6607 Cl  0  0  0  0  0  0  0  0  0  0  0  0
    2.9164   -1.0199   -0.1701 C   0  0  0  0  0  0  0  0  0  0  0  0
    3.8803   -2.4320   -0.5063 Cl  0  0  0  0  0  0  0  0  0  0  0  0
    3.5386    0.1951    0.1666 C   0  0  0  0  0  0  0  0  0  0  0  0
    5.2771    0.2905    0.2501 Cl  0  0  0  0  0  0  0  0  0  0  0  0
    2.7583    1.3341    0.4320 C   0  0  0  0  0  0  0  0  0  0  0  0
    3.5260    2.8434    0.8430 Cl  0  0  0  0  0  0  0  0  0  0  0  0
    1.3538    1.2546    0.3628 C   0  0  0  0  0  0  0  0  0  0  0  0
    0.3822    2.6683    0.6868 Cl  0  0  0  0  0  0  0  0  0  0  0  0
  1  2  1  0
  2  3  2  0
  3  4  1  0
  4  5  2  0
  5  6  1  0
  5  7  1  0
  7  8  2  0
  7  9  1  0
  9 10  2  0
 10 11  1  0
 10 12  1  0
 12 13  1  0
 12 14  2  0
 14 15  1  0
 14 16  1  0
 16 17  1  0
 16 18  2  0
 18 19  1  0
  8  2  1  0
 18  9  1  0
M  END
>  <target>  (880) 
-8.94

$$$$

     RDKit          3D

  6  5  0  0  0  0  0  0  0  0999 V2000
    1.9340   -0.2645   -0.9403 C   0  0  0  0  0  0  0  0  0  0  0  0
    1.1133   -0.3623    0.3400 C   0  0  0  0  0  0  0  0  0  0  0  0
   -0.3782    0.0435    0.2186 C   0  0  0  0  0  0  0  0  0  0  0  0
   -1.1189   -0.8576   -0.7833 C   0  0  0  0  0  0  0  0  0  0  0  0
   -0.5206    1.5106   -0.2190 C   0  0  0  0  0  0  0  0  0  0  0  0
   -1.0355   -0.1203    1.6028 C   0  0  0  0  0  0  0  0  0  0  0  0
  1  2  1  0
  2  3  1  0
  3  4  1  0
  3  5  1  0
  3  6  1  0
M  END
>  <target>  (881) 
-3.55

$$$$

     RDKit          3D

  8  8  0  0  0  0  0  0  0  0999 V2000
   -2.6603   -0.0781   -0.0388 C   0  0  0  0  0  0  0  0  0  0  0  0
   -1.5438    0.8495   -0.0336 N   0  0  0  0  0  0  0  0  0  0  0  0
   -0.2367    0.3501    0.0050 C   0  0  0  0  0  0  0  0  0  0  0  0
    0.8033    1.2273    0.3481 C   0  0  0  0  0  0  0  0  0  0  0  0
    2.1387    0.8129    0.3443 C   0  0  0  0  0  0  0  0  0  0  0  0
    2.4615   -0.4864   -0.0319 C   0  0  0  0  0  0  0  0  0  0  0  0
    1.4497   -1.3608   -0.4165 C   0  0  0  0  0  0  0  0  0  0  0  0
    0.1150   -0.9393   -0.4112 C   0  0  0  0  0  0  0  0  0  0  0  0
  1  2  1  0
  2  3  1  0
  3  4  2  0
  4  5  1  0
  5  6  2  0
  6  7  1  0
  7  8  2  0
  8  3  1  0
M  END
>  <target>  (882) 
-1.28

$$$$

     RDKit          3D

  5  4  0  0  0  0  0  0  0  0999 V2000
   -2.3590    0.1443    0.0951 C   0  0  0  0  0  0  0  0  0  0  0  0
   -1.1163   -0.2523    0.3999 C   0  0  0  0  0  0  0  0  0  0  0  0
    0.1163    0.5763    0.1841 C   0  0  0  0  0  0  0  0  0  0  0  0
    1.0482   -0.0848   -0.7891 C   0  0  0  0  0  0  0  0  0  0  0  0
    2.2881   -0.4956   -0.4916 C   0  0  0  0  0  0  0  0  0  0  0  0
  1  2  2  0
  2  3  1  0
  3  4  1  0
  4  5  2  0
M  END
>  <target>  (883) 
-2.09

$$$$

     RDKit          3D

 29 32  0  0  0  0  0  0  0  0999 V2000
    5.7726    2.8380    1.2029 C   0  0  0  0  0  0  0  0  0  0  0  0
    4.7117    2.0716    0.4760 C   0  0  0  0  0  0  0  0  0  0  0  0
    3.5091    2.2016    0.6585 O   0  0  0  0  0  0  0  0  0  0  0  0
    5.2760    1.2246   -0.4267 O   0  0  0  0  0  0  0  0  0  0  0  0
    4.3401    0.3827   -1.1026 C   0  0  0  0  0  0  0  0  0  0  0  0
    3.8804   -0.7894   -0.2377 C   0  0  0  0  0  0  0  0  0  0  0  0
    4.5263   -1.1403    0.7604 O   0  0  0  0  0  0  0  0  0  0  0  0
    2.6067   -1.5847   -0.6305 C   0  0  0  0  0  0  0  0  0  0  0  0
    2.9156   -2.9548   -0.3419 O   0  0  0  0  0  0  0  0  0  0  0  0
    2.2295   -1.4825   -2.1130 C   0  0  0  0  0  0  0  0  0  0  0  0
    1.0990   -0.4501   -2.1972 C   0  0  0  0  0  0  0  0  0  0  0  0
    0.8147    0.0242   -0.7569 C   0  0  0  0  0  0  0  0  0  0  0  0
   -0.6364    0.4829   -0.4796 C   0  0  0  0  0  0  0  0  0  0  0  0
   -1.0573    1.6014   -1.4674 C   0  0  0  0  0  0  0  0  0  0  0  0
   -2.5532    1.6468   -1.7640 C   0  0  0  0  0  0  0  0  0  0  0  0
   -3.3206    1.2964   -0.5260 C   0  0  0  0  0  0  0  0  0  0  0  0
   -4.0740    2.2199    0.0957 C   0  0  0  0  0  0  0  0  0  0  0  0
   -4.8013    1.9133    1.3481 C   0  0  0  0  0  0  0  0  0  0  0  0
   -5.5301    2.7704    1.8430 O   0  0  0  0  0  0  0  0  0  0  0  0
   -4.6555    0.5384    1.9480 C   0  0  0  0  0  0  0  0  0  0  0  0
   -3.3499   -0.1293    1.5217 C   0  0  0  0  0  0  0  0  0  0  0  0
   -3.1242   -0.1354   -0.0149 C   0  0  0  0  0  0  0  0  0  0  0  0
   -4.2007   -1.0202   -0.6913 C   0  0  0  0  0  0  0  0  0  0  0  0
   -1.6744   -0.6710   -0.4158 C   0  0  0  0  0  0  0  0  0  0  0  0
   -1.1620   -1.8267    0.4764 C   0  0  0  0  0  0  0  0  0  0  0  0
   -2.0357   -2.9490    0.3829 O   0  0  0  0  0  0  0  0  0  0  0  0
    0.2494   -2.2887    0.1077 C   0  0  0  0  0  0  0  0  0  0  0  0
    1.3040   -1.1493    0.1158 C   0  0  0  0  0  0  0  0  0  0  0  0
    1.5606   -0.7225    1.5719 C   0  0  0  0  0  0  0  0  0  0  0  0
  1  2  1  0
  2  3  2  0
  2  4  1  0
  4  5  1  0
  5  6  1  0
  6  7  2  0
  6  8  1  0
  8  9  1  0
  8 10  1  0
 10 11  1  0
 11 12  1  0
 12 13  1  0
 13 14  1  0
 14 15  1  0
 15 16  1  0
 16 17  2  0
 17 18  1  0
 18 19  2  0
 18 20  1  0
 20 21  1  0
 21 22  1  0
 22 23  1  0
 22 24  1  0
 24 25  1  0
 25 26  1  0
 25 27  1  0
 27 28  1  0
 28 29  1  0
 28  8  1  0
 28 12  1  0
 24 13  1  0
 22 16  1  0
M  END
>  <target>  (884) 
-4.88

$$$$

     RDKit          3D

 14 14  0  0  0  0  0  0  0  0999 V2000
    2.2940   -0.7393   -1.2539 C   0  0  0  0  0  0  0  0  0  0  0  0
    0.9979   -0.4083   -0.5635 C   0  0  0  0  0  0  0  0  0  0  0  0
    0.0563   -1.4216   -0.3229 C   0  0  0  0  0  0  0  0  0  0  0  0
   -1.1534   -1.1225    0.3195 C   0  0  0  0  0  0  0  0  0  0  0  0
   -1.4412    0.1849    0.7296 C   0  0  0  0  0  0  0  0  0  0  0  0
   -0.5000    1.1993    0.4894 C   0  0  0  0  0  0  0  0  0  0  0  0
   -0.8159    2.5642    0.9250 N   0  0  0  0  0  0  0  0  0  0  0  0
   -1.9018    2.7586    1.4861 O   0  0  0  0  0  0  0  0  0  0  0  0
    0.0292    3.4456    0.7031 O   0  0  0  0  0  0  0  0  0  0  0  0
    0.7162    0.9074   -0.1546 C   0  0  0  0  0  0  0  0  0  0  0  0
    1.6864    1.8368   -0.4264 O   0  0  0  0  0  0  0  0  0  0  0  0
   -2.1295   -2.1942    0.5644 N   0  0  0  0  0  0  0  0  0  0  0  0
   -3.1851   -1.8876    1.1344 O   0  0  0  0  0  0  0  0  0  0  0  0
   -1.8376   -3.3368    0.1867 O   0  0  0  0  0  0  0  0  0  0  0  0
  1  2  1  0
  2  3  2  0
  3  4  1  0
  4  5  2  0
  5  6  1  0
  6  7  1  0
  7  8  1  0
  7  9  2  0
  6 10  2  0
 10 11  1  0
  4 12  1  0
 12 13  1  0
 12 14  2  0
 10  2  1  0
M  CHG  4   7   1   8  -1  12   1  13  -1
M  END
>  <target>  (885) 
-1.456

$$$$

     RDKit          3D

 21 23  0  0  0  0  0  0  0  0999 V2000
    1.3531   -3.1465   -2.3055 O   0  0  0  0  0  0  0  0  0  0  0  0
    1.3482   -1.9865   -1.4895 C   0  0  0  0  0  0  0  0  0  0  0  0
    0.0239   -1.6878   -0.9704 N   0  0  0  0  0  0  0  0  0  0  0  0
   -0.1876   -0.5508   -0.3999 C   0  0  0  0  0  0  0  0  0  0  0  0
   -1.5828   -0.3050    0.0734 C   0  0  0  0  0  0  0  0  0  0  0  0
   -2.6085   -0.4394   -0.8749 C   0  0  0  0  0  0  0  0  0  0  0  0
   -3.9354   -0.2080   -0.5117 C   0  0  0  0  0  0  0  0  0  0  0  0
   -4.2457    0.1469    0.7997 C   0  0  0  0  0  0  0  0  0  0  0  0
   -3.2312    0.2589    1.7530 C   0  0  0  0  0  0  0  0  0  0  0  0
   -1.8981    0.0273    1.3975 C   0  0  0  0  0  0  0  0  0  0  0  0
   -0.7133    0.1239    2.6505 Cl  0  0  0  0  0  0  0  0  0  0  0  0
    0.8318    0.5249   -0.1955 C   0  0  0  0  0  0  0  0  0  0  0  0
    0.4249    1.8595   -0.3631 C   0  0  0  0  0  0  0  0  0  0  0  0
    1.2805    2.8998   -0.0094 C   0  0  0  0  0  0  0  0  0  0  0  0
    0.7685    4.5297   -0.2052 Cl  0  0  0  0  0  0  0  0  0  0  0  0
    2.5371    2.6291    0.5214 C   0  0  0  0  0  0  0  0  0  0  0  0
    2.9551    1.3053    0.6720 C   0  0  0  0  0  0  0  0  0  0  0  0
    2.1259    0.2453    0.2799 C   0  0  0  0  0  0  0  0  0  0  0  0
    2.6573   -1.0444    0.4233 N   0  0  0  0  0  0  0  0  0  0  0  0
    2.3160   -2.1654   -0.2910 C   0  0  0  0  0  0  0  0  0  0  0  0
    2.8352   -3.2457    0.0002 O   0  0  0  0  0  0  0  0  0  0  0  0
  1  2  1  0
  2  3  1  0
  3  4  2  0
  4  5  1  0
  5  6  2  0
  6  7  1  0
  7  8  2  0
  8  9  1  0
  9 10  2  0
 10 11  1  0
  4 12  1  0
 12 13  2  0
 13 14  1  0
 14 15  1  0
 14 16  2  0
 16 17  1  0
 17 18  2  0
 18 19  1  0
 19 20  1  0
 20 21  2  0
 10  5  1  0
 18 12  1  0
 20  2  1  0
M  END
>  <target>  (886) 
-3.6039999999999996

$$$$

     RDKit          3D

  8  8  0  0  0  0  0  0  0  0999 V2000
   -1.9943   -1.5087    0.2673 O   0  0  0  0  0  0  0  0  0  0  0  0
   -0.9164   -0.6856    0.1241 C   0  0  0  0  0  0  0  0  0  0  0  0
   -1.0131    0.6822    0.3692 C   0  0  0  0  0  0  0  0  0  0  0  0
    0.1146    1.4897    0.2107 C   0  0  0  0  0  0  0  0  0  0  0  0
    1.3271    0.9249   -0.1906 C   0  0  0  0  0  0  0  0  0  0  0  0
    1.4068   -0.4471   -0.4321 C   0  0  0  0  0  0  0  0  0  0  0  0
    2.9029   -1.1394   -0.9266 Cl  0  0  0  0  0  0  0  0  0  0  0  0
    0.2859   -1.2585   -0.2759 C   0  0  0  0  0  0  0  0  0  0  0  0
  1  2  1  0
  2  3  2  0
  3  4  1  0
  4  5  2  0
  5  6  1  0
  6  7  1  0
  6  8  2  0
  8  2  1  0
M  END
>  <target>  (887) 
-0.7

$$$$

     RDKit          3D

  8  8  0  0  0  0  0  0  0  0999 V2000
    2.8868   -1.0973    0.1470 Cl  0  0  0  0  0  0  0  0  0  0  0  0
    1.2902   -0.4598    0.0649 C   0  0  0  0  0  0  0  0  0  0  0  0
    1.1002    0.9218    0.0225 C   0  0  0  0  0  0  0  0  0  0  0  0
   -0.1929    1.4427   -0.0441 C   0  0  0  0  0  0  0  0  0  0  0  0
   -1.2901    0.5804   -0.0679 C   0  0  0  0  0  0  0  0  0  0  0  0
   -1.0876   -0.7997   -0.0250 C   0  0  0  0  0  0  0  0  0  0  0  0
   -2.5767   -1.9645   -0.0575 Br  0  0  0  0  0  0  0  0  0  0  0  0
    0.2004   -1.3278    0.0415 C   0  0  0  0  0  0  0  0  0  0  0  0
  1  2  1  0
  2  3  2  0
  3  4  1  0
  4  5  2  0
  5  6  1  0
  6  7  1  0
  6  8  2  0
  8  2  1  0
M  END
>  <target>  (888) 
-3.21

$$$$

     RDKit          3D

 17 18  0  0  0  0  0  0  0  0999 V2000
    3.9061    0.5517   -0.1839 N   0  0  0  0  0  0  0  0  0  0  0  0
    3.0227   -0.8343    0.1480 S   0  0  0  0  0  0  0  0  0  0  0  0
    3.4949   -1.3611    1.4045 O   0  0  0  0  0  0  0  0  0  0  0  0
    3.0807   -1.6078   -1.0716 O   0  0  0  0  0  0  0  0  0  0  0  0
    1.3783   -0.2253    0.3503 C   0  0  0  0  0  0  0  0  0  0  0  0
    0.3903   -0.6692   -0.5377 C   0  0  0  0  0  0  0  0  0  0  0  0
   -0.9228   -0.2073   -0.3906 C   0  0  0  0  0  0  0  0  0  0  0  0
   -1.2885    0.6727    0.6190 C   0  0  0  0  0  0  0  0  0  0  0  0
   -2.5855    1.1462    0.8563 N   0  0  0  0  0  0  0  0  0  0  0  0
   -3.6009    0.7006    0.2062 C   0  0  0  0  0  0  0  0  0  0  0  0
   -3.5535   -0.2093   -0.8414 N   0  0  0  0  0  0  0  0  0  0  0  0
   -2.1404   -0.7227   -1.5278 S   0  0  0  0  0  0  0  0  0  0  0  0
   -2.1830   -2.1679   -1.5062 O   0  0  0  0  0  0  0  0  0  0  0  0
   -1.9424    0.0177   -2.7523 O   0  0  0  0  0  0  0  0  0  0  0  0
   -0.2844    1.1042    1.4948 C   0  0  0  0  0  0  0  0  0  0  0  0
    1.0435    0.6656    1.3715 C   0  0  0  0  0  0  0  0  0  0  0  0
    2.1730    1.2916    2.5177 Cl  0  0  0  0  0  0  0  0  0  0  0  0
  1  2  1  0
  2  3  2  0
  2  4  2  0
  2  5  1  0
  5  6  2  0
  6  7  1  0
  7  8  2  0
  8  9  1  0
  9 10  2  0
 10 11  1  0
 11 12  1  0
 12 13  2  0
 12 14  2  0
  8 15  1  0
 15 16  2  0
 16 17  1  0
 12  7  1  0
 16  5  1  0
M  END
>  <target>  (889) 
-3.05

$$$$

     RDKit          3D

 12 12  0  0  0  0  0  0  0  0999 V2000
    0.3168    1.6532   -1.6247 O   0  0  0  0  0  0  0  0  0  0  0  0
   -0.3560    0.8869   -0.9398 C   0  0  0  0  0  0  0  0  0  0  0  0
   -1.6999    1.0959   -0.7932 N   0  0  0  0  0  0  0  0  0  0  0  0
   -2.4282    0.6518    0.2658 C   0  0  0  0  0  0  0  0  0  0  0  0
   -3.4822    1.1900    0.5881 O   0  0  0  0  0  0  0  0  0  0  0  0
   -1.8940   -0.3592    1.0017 N   0  0  0  0  0  0  0  0  0  0  0  0
   -0.5660   -0.6873    1.0019 C   0  0  0  0  0  0  0  0  0  0  0  0
   -0.0720   -1.2607    1.9694 O   0  0  0  0  0  0  0  0  0  0  0  0
    0.1955   -0.3615   -0.2719 C   0  0  0  0  0  0  0  0  0  0  0  0
   -0.0526   -1.5311   -1.2470 C   0  0  0  0  0  0  0  0  0  0  0  0
    1.7146   -0.2447   -0.0129 C   0  0  0  0  0  0  0  0  0  0  0  0
    2.1102    0.8798    0.9415 C   0  0  0  0  0  0  0  0  0  0  0  0
  1  2  2  0
  2  3  1  0
  3  4  1  0
  4  5  2  0
  4  6  1  0
  6  7  1  0
  7  8  2  0
  7  9  1  0
  9 10  1  0
  9 11  1  0
 11 12  1  0
  9  2  1  0
M  END
>  <target>  (890) 
-1.228

$$$$

     RDKit          3D

 10 10  0  0  0  0  0  0  0  0999 V2000
    3.6857    0.4775    0.2933 O   0  0  0  0  0  0  0  0  0  0  0  0
    3.0794   -0.6731   -0.2936 C   0  0  0  0  0  0  0  0  0  0  0  0
    1.6757   -0.8764    0.2700 C   0  0  0  0  0  0  0  0  0  0  0  0
    0.8830    0.2462   -0.1328 O   0  0  0  0  0  0  0  0  0  0  0  0
   -0.4283    0.2506    0.2562 C   0  0  0  0  0  0  0  0  0  0  0  0
   -1.0543   -0.7142    1.0466 C   0  0  0  0  0  0  0  0  0  0  0  0
   -2.4084   -0.5842    1.3720 C   0  0  0  0  0  0  0  0  0  0  0  0
   -3.1407    0.5082    0.9104 C   0  0  0  0  0  0  0  0  0  0  0  0
   -2.5203    1.4743    0.1225 C   0  0  0  0  0  0  0  0  0  0  0  0
   -1.1688    1.3439   -0.2016 C   0  0  0  0  0  0  0  0  0  0  0  0
  1  2  1  0
  2  3  1  0
  3  4  1  0
  4  5  1  0
  5  6  2  0
  6  7  1  0
  7  8  2  0
  8  9  1  0
  9 10  2  0
 10  5  1  0
M  END
>  <target>  (891) 
-0.7

$$$$

     RDKit          3D

 13 14  0  0  0  0  0  0  0  0999 V2000
   -0.0958   -0.4041    1.3644 C   0  0  0  0  0  0  0  0  0  0  0  0
   -1.3088   -0.0909    0.5173 C   0  0  0  0  0  0  0  0  0  0  0  0
   -2.2073   -1.1053    0.1566 C   0  0  0  0  0  0  0  0  0  0  0  0
   -3.3304   -0.8142   -0.6199 C   0  0  0  0  0  0  0  0  0  0  0  0
   -3.5679    0.4922   -1.0427 C   0  0  0  0  0  0  0  0  0  0  0  0
   -2.6832    1.5091   -0.6898 C   0  0  0  0  0  0  0  0  0  0  0  0
   -1.5602    1.2204    0.0871 C   0  0  0  0  0  0  0  0  0  0  0  0
    1.2260   -0.1871    0.6623 C   0  0  0  0  0  0  0  0  0  0  0  0
    1.5852   -0.9728   -0.4428 C   0  0  0  0  0  0  0  0  0  0  0  0
    2.8079   -0.7754   -1.0863 C   0  0  0  0  0  0  0  0  0  0  0  0
    3.6854    0.2067   -0.6313 C   0  0  0  0  0  0  0  0  0  0  0  0
    3.3411    0.9925    0.4668 C   0  0  0  0  0  0  0  0  0  0  0  0
    2.1182    0.7971    1.1114 C   0  0  0  0  0  0  0  0  0  0  0  0
  1  2  1  0
  2  3  2  0
  3  4  1  0
  4  5  2  0
  5  6  1  0
  6  7  2  0
  1  8  1  0
  8  9  2  0
  9 10  1  0
 10 11  2  0
 11 12  1  0
 12 13  2  0
  7  2  1  0
 13  8  1  0
M  END
>  <target>  (892) 
-4.08

$$$$

     RDKit          3D

  9  8  0  0  0  0  0  0  0  0999 V2000
    4.3264   -0.3019   -0.3261 C   0  0  0  0  0  0  0  0  0  0  0  0
    2.9218   -0.5670    0.1918 C   0  0  0  0  0  0  0  0  0  0  0  0
    1.8873    0.2994   -0.5264 C   0  0  0  0  0  0  0  0  0  0  0  0
    0.4745    0.0298   -0.0020 C   0  0  0  0  0  0  0  0  0  0  0  0
   -0.5599    0.8967   -0.7291 C   0  0  0  0  0  0  0  0  0  0  0  0
   -1.9958    0.7392   -0.2076 C   0  0  0  0  0  0  0  0  0  0  0  0
   -2.0502    1.0915    1.1728 O   0  0  0  0  0  0  0  0  0  0  0  0
   -2.5472   -0.6793   -0.3820 C   0  0  0  0  0  0  0  0  0  0  0  0
   -4.0290   -0.7633   -0.0356 C   0  0  0  0  0  0  0  0  0  0  0  0
  1  2  1  0
  2  3  1  0
  3  4  1  0
  4  5  1  0
  5  6  1  0
  6  7  1  0
  6  8  1  0
  8  9  1  0
M  END
>  <target>  (893) 
-1.98

$$$$

     RDKit          3D

 28 29  0  0  0  0  0  0  0  0999 V2000
    0.0768   -3.6701    0.0736 C   0  0  0  0  0  0  0  0  0  0  0  0
   -0.2759   -2.5662   -0.9130 C   0  0  0  0  0  0  0  0  0  0  0  0
    0.1549   -1.2512   -0.3965 N   0  0  0  0  0  0  0  0  0  0  0  0
    1.5912   -0.9265   -0.5730 C   0  0  0  0  0  0  0  0  0  0  0  0
    2.1398   -0.1886    0.6216 C   0  0  0  0  0  0  0  0  0  0  0  0
    2.5390   -0.9272    1.7432 C   0  0  0  0  0  0  0  0  0  0  0  0
    2.4615   -2.2656    1.7227 F   0  0  0  0  0  0  0  0  0  0  0  0
    3.0369   -0.3171    2.8920 C   0  0  0  0  0  0  0  0  0  0  0  0
    3.1511    1.0672    2.9431 C   0  0  0  0  0  0  0  0  0  0  0  0
    2.7652    1.8282    1.8408 C   0  0  0  0  0  0  0  0  0  0  0  0
    2.2624    1.2070    0.6893 C   0  0  0  0  0  0  0  0  0  0  0  0
    1.8078    2.2370   -0.6217 Cl  0  0  0  0  0  0  0  0  0  0  0  0
   -0.7558   -0.2053   -0.6246 C   0  0  0  0  0  0  0  0  0  0  0  0
   -1.4334    0.3883    0.4614 C   0  0  0  0  0  0  0  0  0  0  0  0
   -2.3083    1.4856    0.3321 C   0  0  0  0  0  0  0  0  0  0  0  0
   -2.5671    2.0313   -0.9300 C   0  0  0  0  0  0  0  0  0  0  0  0
   -1.9375    1.4570   -2.0413 C   0  0  0  0  0  0  0  0  0  0  0  0
   -1.0645    0.3608   -1.8782 C   0  0  0  0  0  0  0  0  0  0  0  0
   -0.5058   -0.1774   -3.1003 N   0  0  0  0  0  0  0  0  0  0  0  0
    0.4641    0.4174   -3.5859 O   0  0  0  0  0  0  0  0  0  0  0  0
   -1.0735   -1.1623   -3.5895 O   0  0  0  0  0  0  0  0  0  0  0  0
   -3.4805    3.2248   -1.0865 C   0  0  0  0  0  0  0  0  0  0  0  0
   -4.1185    3.2439   -2.2880 F   0  0  0  0  0  0  0  0  0  0  0  0
   -4.4577    3.2691   -0.1415 F   0  0  0  0  0  0  0  0  0  0  0  0
   -2.8075    4.4016   -0.9947 F   0  0  0  0  0  0  0  0  0  0  0  0
   -1.2656   -0.1426    1.8022 N   0  0  0  0  0  0  0  0  0  0  0  0
   -0.6709    0.5778    2.6160 O   0  0  0  0  0  0  0  0  0  0  0  0
   -1.8083   -1.2271    2.0529 O   0  0  0  0  0  0  0  0  0  0  0  0
  1  2  1  0
  2  3  1  0
  3  4  1  0
  4  5  1  0
  5  6  2  0
  6  7  1  0
  6  8  1  0
  8  9  2  0
  9 10  1  0
 10 11  2  0
 11 12  1  0
  3 13  1  0
 13 14  2  0
 14 15  1  0
 15 16  2  0
 16 17  1  0
 17 18  2  0
 18 19  1  0
 19 20  1  0
 19 21  2  0
 16 22  1  0
 22 23  1  0
 22 24  1  0
 22 25  1  0
 14 26  1  0
 26 27  1  0
 26 28  2  0
 11  5  1  0
 18 13  1  0
M  CHG  4  19   1  20  -1  26   1  27  -1
M  END
>  <target>  (894) 
-6.78

$$$$

     RDKit          3D

 15 15  0  0  0  0  0  0  0  0999 V2000
   -3.6035    0.4687    0.0631 C   0  0  0  0  0  0  0  0  0  0  0  0
   -2.8468   -0.0870   -1.1433 C   0  0  0  0  0  0  0  0  0  0  0  0
   -3.8217   -0.3794   -2.2845 C   0  0  0  0  0  0  0  0  0  0  0  0
   -2.1669   -1.3296   -0.8008 N   0  0  0  0  0  0  0  0  0  0  0  0
   -1.0290   -1.2478   -0.0157 C   0  0  0  0  0  0  0  0  0  0  0  0
   -0.8109   -2.2791    0.7766 N   0  0  0  0  0  0  0  0  0  0  0  0
    0.2944   -2.1625    1.4957 C   0  0  0  0  0  0  0  0  0  0  0  0
    0.6444   -3.4679    2.5434 Cl  0  0  0  0  0  0  0  0  0  0  0  0
    1.1635   -1.1654    1.5054 N   0  0  0  0  0  0  0  0  0  0  0  0
    0.8456   -0.1860    0.6806 C   0  0  0  0  0  0  0  0  0  0  0  0
    1.6460    0.9397    0.5828 N   0  0  0  0  0  0  0  0  0  0  0  0
    3.0755    0.7834    0.8184 C   0  0  0  0  0  0  0  0  0  0  0  0
    3.6769    2.1745    1.0223 C   0  0  0  0  0  0  0  0  0  0  0  0
    3.7485    0.0898   -0.3660 C   0  0  0  0  0  0  0  0  0  0  0  0
   -0.2324   -0.1867   -0.0940 N   0  0  0  0  0  0  0  0  0  0  0  0
  1  2  1  0
  2  3  1  0
  2  4  1  0
  4  5  1  0
  5  6  2  0
  6  7  1  0
  7  8  1  0
  7  9  2  0
  9 10  1  0
 10 11  1  0
 11 12  1  0
 12 13  1  0
 12 14  1  0
 10 15  2  0
 15  5  1  0
M  END
>  <target>  (895) 
-4.43

$$$$

     RDKit          3D

  7  6  0  0  0  0  0  0  0  0999 V2000
    2.8612    0.4119   -0.4445 C   0  0  0  0  0  0  0  0  0  0  0  0
    1.6731   -0.2174    0.2679 C   0  0  0  0  0  0  0  0  0  0  0  0
    0.3486    0.3552   -0.2440 C   0  0  0  0  0  0  0  0  0  0  0  0
   -0.8845   -0.1514    0.5346 C   0  0  0  0  0  0  0  0  0  0  0  0
   -1.0593   -1.6667    0.4198 C   0  0  0  0  0  0  0  0  0  0  0  0
   -2.1596    0.5495    0.0447 C   0  0  0  0  0  0  0  0  0  0  0  0
   -2.0743    1.9467    0.2929 O   0  0  0  0  0  0  0  0  0  0  0  0
  1  2  1  0
  2  3  1  0
  3  4  1  0
  4  5  1  0
  4  6  1  0
  6  7  1  0
M  END
>  <target>  (896) 
-1.11

$$$$

     RDKit          3D

  8  7  0  0  0  0  0  0  0  0999 V2000
    3.4435   -0.7022    0.2152 C   0  0  0  0  0  0  0  0  0  0  0  0
    2.2691    0.2026    0.5527 C   0  0  0  0  0  0  0  0  0  0  0  0
    0.9645   -0.3245   -0.0482 C   0  0  0  0  0  0  0  0  0  0  0  0
   -0.2157    0.5909    0.3030 C   0  0  0  0  0  0  0  0  0  0  0  0
   -1.5568    0.1788   -0.3392 C   0  0  0  0  0  0  0  0  0  0  0  0
   -2.0063   -1.2180    0.0920 C   0  0  0  0  0  0  0  0  0  0  0  0
   -2.6407    1.2018    0.0163 C   0  0  0  0  0  0  0  0  0  0  0  0
   -1.4178    0.1634   -1.7614 O   0  0  0  0  0  0  0  0  0  0  0  0
  1  2  1  0
  2  3  1  0
  3  4  1  0
  4  5  1  0
  5  6  1  0
  5  7  1  0
  5  8  1  0
M  END
>  <target>  (897) 
-1.08

$$$$

     RDKit          3D

  8  8  0  0  0  0  0  0  0  0999 V2000
    2.4937    0.0614   -0.4646 C   0  0  0  0  0  0  0  0  0  0  0  0
    1.5880   -0.2419    0.7191 C   0  0  0  0  0  0  0  0  0  0  0  0
    0.1308   -0.1032    0.3599 C   0  0  0  0  0  0  0  0  0  0  0  0
   -0.5843   -1.1975   -0.1446 C   0  0  0  0  0  0  0  0  0  0  0  0
   -1.9296   -1.0641   -0.4921 C   0  0  0  0  0  0  0  0  0  0  0  0
   -2.5707    0.1643   -0.3431 C   0  0  0  0  0  0  0  0  0  0  0  0
   -1.8669    1.2607    0.1514 C   0  0  0  0  0  0  0  0  0  0  0  0
   -0.5215    1.1291    0.4994 C   0  0  0  0  0  0  0  0  0  0  0  0
  1  2  1  0
  2  3  1  0
  3  4  2  0
  4  5  1  0
  5  6  2  0
  6  7  1  0
  7  8  2  0
  8  3  1  0
M  END
>  <target>  (898) 
-2.77

$$$$

     RDKit          3D

 16 16  0  0  0  0  0  0  0  0999 V2000
   -0.4844    1.1378    1.7531 O   0  0  0  0  0  0  0  0  0  0  0  0
   -0.9296    0.3070    0.9655 C   0  0  0  0  0  0  0  0  0  0  0  0
   -1.5203   -0.8332    1.4365 N   0  0  0  0  0  0  0  0  0  0  0  0
   -2.5646   -1.4314    0.8054 C   0  0  0  0  0  0  0  0  0  0  0  0
   -3.3850   -2.1040    1.4209 O   0  0  0  0  0  0  0  0  0  0  0  0
   -2.7087   -1.1784   -0.5235 N   0  0  0  0  0  0  0  0  0  0  0  0
   -2.1217   -0.1335   -1.1851 C   0  0  0  0  0  0  0  0  0  0  0  0
   -2.5799    0.2486   -2.2593 O   0  0  0  0  0  0  0  0  0  0  0  0
   -0.8589    0.4331   -0.5508 C   0  0  0  0  0  0  0  0  0  0  0  0
   -0.6354    1.9036   -0.9855 C   0  0  0  0  0  0  0  0  0  0  0  0
   -1.7703    2.8592   -0.6187 C   0  0  0  0  0  0  0  0  0  0  0  0
    0.2941   -0.4791   -1.0678 C   0  0  0  0  0  0  0  0  0  0  0  0
    1.6747   -0.1208   -0.5794 C   0  0  0  0  0  0  0  0  0  0  0  0
    2.4328   -0.7800    0.3186 C   0  0  0  0  0  0  0  0  0  0  0  0
    3.8075   -0.2719    0.6742 C   0  0  0  0  0  0  0  0  0  0  0  0
    2.0349   -2.0284    1.0565 C   0  0  0  0  0  0  0  0  0  0  0  0
  1  2  2  0
  2  3  1  0
  3  4  1  0
  4  5  2  0
  4  6  1  0
  6  7  1  0
  7  8  2  0
  7  9  1  0
  9 10  1  0
 10 11  1  0
  9 12  1  0
 12 13  1  0
 13 14  2  3
 14 15  1  0
 14 16  1  0
  9  2  1  0
M  END
>  <target>  (899) 
-2.253

$$$$

     RDKit          3D

 17 19  0  0  0  0  0  0  0  0999 V2000
    3.2697    1.0944   -1.0048 Cl  0  0  0  0  0  0  0  0  0  0  0  0
    1.8640    0.7706    0.0374 C   0  0  0  0  0  0  0  0  0  0  0  0
    2.1190   -0.4906    0.8024 C   0  0  0  0  0  0  0  0  0  0  0  0
    1.2622   -1.4769    0.5130 C   0  0  0  0  0  0  0  0  0  0  0  0
    0.2511   -1.0589   -0.5081 C   0  0  0  0  0  0  0  0  0  0  0  0
    0.6213    0.4399   -0.8024 C   0  0  0  0  0  0  0  0  0  0  0  0
   -0.7087    1.1758   -0.4404 C   0  0  0  0  0  0  0  0  0  0  0  0
   -0.7899    2.8078   -1.0821 Cl  0  0  0  0  0  0  0  0  0  0  0  0
   -0.9758    1.0280    1.0463 C   0  0  0  0  0  0  0  0  0  0  0  0
   -1.3054   -0.2496    1.2690 C   0  0  0  0  0  0  0  0  0  0  0  0
   -1.6422   -0.9954    2.7510 Cl  0  0  0  0  0  0  0  0  0  0  0  0
   -1.2511   -0.9680   -0.0660 C   0  0  0  0  0  0  0  0  0  0  0  0
   -2.1066   -2.4969   -0.1664 Cl  0  0  0  0  0  0  0  0  0  0  0  0
   -1.7852    0.1753   -0.9857 C   0  0  0  0  0  0  0  0  0  0  0  0
   -1.6811   -0.1689   -2.7490 Cl  0  0  0  0  0  0  0  0  0  0  0  0
   -3.4971    0.6619   -0.6725 Cl  0  0  0  0  0  0  0  0  0  0  0  0
   -0.8123    2.2718    2.1834 Cl  0  0  0  0  0  0  0  0  0  0  0  0
  1  2  1  0
  2  3  1  0
  3  4  2  0
  4  5  1  0
  5  6  1  0
  6  7  1  0
  7  8  1  0
  7  9  1  0
  9 10  2  0
 10 11  1  0
 10 12  1  0
 12 13  1  0
 12 14  1  0
 14 15  1  0
 14 16  1  0
  9 17  1  0
  6  2  1  0
 12  5  1  0
 14  7  1  0
M  END
>  <target>  (900) 
-6.317

$$$$

     RDKit          3D

 17 17  0  0  0  0  0  0  0  0999 V2000
   -2.8231   -2.0823   -1.1538 C   0  0  0  0  0  0  0  0  0  0  0  0
   -2.0434   -0.8795   -0.6325 C   0  0  0  0  0  0  0  0  0  0  0  0
   -0.5096   -1.0941   -0.5910 C   0  0  0  0  0  0  0  0  0  0  0  0
   -0.1551   -2.3309    0.2583 C   0  0  0  0  0  0  0  0  0  0  0  0
    0.3219    0.1782   -0.1441 C   0  0  0  0  0  0  0  0  0  0  0  0
   -0.0961    1.4519   -0.9405 C   0  0  0  0  0  0  0  0  0  0  0  0
    0.6868    2.7168   -0.6416 C   0  0  0  0  0  0  0  0  0  0  0  0
    2.1561    3.0621   -1.7498 Br  0  0  0  0  0  0  0  0  0  0  0  0
    0.3210    3.6039    0.2946 C   0  0  0  0  0  0  0  0  0  0  0  0
    0.0876    0.4477    1.3359 C   0  0  0  0  0  0  0  0  0  0  0  0
   -0.9796    0.8648    1.7839 O   0  0  0  0  0  0  0  0  0  0  0  0
    1.1223    0.1975    2.1881 N   0  0  0  0  0  0  0  0  0  0  0  0
    2.4313    0.1496    1.8332 C   0  0  0  0  0  0  0  0  0  0  0  0
    3.3238    0.1528    2.6740 O   0  0  0  0  0  0  0  0  0  0  0  0
    2.7020    0.0957    0.5052 N   0  0  0  0  0  0  0  0  0  0  0  0
    1.7817   -0.1071   -0.4803 C   0  0  0  0  0  0  0  0  0  0  0  0
    2.1480   -0.5027   -1.5863 O   0  0  0  0  0  0  0  0  0  0  0  0
  1  2  1  0
  2  3  1  0
  3  4  1  0
  3  5  1  0
  5  6  1  0
  6  7  1  0
  7  8  1  0
  7  9  2  0
  5 10  1  0
 10 11  2  0
 10 12  1  0
 12 13  1  0
 13 14  2  0
 13 15  1  0
 15 16  1  0
 16 17  2  0
 16  5  1  0
M  END
>  <target>  (901) 
-2.647

$$$$

     RDKit          3D

 26 28  0  0  0  0  0  0  0  0999 V2000
   -1.2654    1.9520   -0.6073 C   0  0  0  0  0  0  0  0  0  0  0  0
   -2.5975    1.2716   -0.3693 C   0  0  0  0  0  0  0  0  0  0  0  0
   -3.7116    2.2767   -0.1674 C   0  0  0  0  0  0  0  0  0  0  0  0
   -2.6570   -0.0152    0.4482 C   0  0  0  0  0  0  0  0  0  0  0  0
   -1.4559   -0.6014    1.0893 C   0  0  0  0  0  0  0  0  0  0  0  0
   -0.7474    0.0346    1.8537 O   0  0  0  0  0  0  0  0  0  0  0  0
   -1.3168   -1.9121    0.7726 O   0  0  0  0  0  0  0  0  0  0  0  0
   -0.1626   -2.5539    1.3436 C   0  0  0  0  0  0  0  0  0  0  0  0
   -0.4674   -3.9821    1.5878 C   0  0  0  0  0  0  0  0  0  0  0  0
   -0.7167   -5.1009    1.7825 N   0  0  0  0  0  0  0  0  0  0  0  0
    1.0028   -2.3592    0.3866 C   0  0  0  0  0  0  0  0  0  0  0  0
    1.0658   -3.0152   -0.8548 C   0  0  0  0  0  0  0  0  0  0  0  0
    2.1240   -2.7734   -1.7338 C   0  0  0  0  0  0  0  0  0  0  0  0
    3.1193   -1.8571   -1.3964 C   0  0  0  0  0  0  0  0  0  0  0  0
    3.0524   -1.1738   -0.1843 C   0  0  0  0  0  0  0  0  0  0  0  0
    4.0622   -0.2726    0.0799 O   0  0  0  0  0  0  0  0  0  0  0  0
    3.7030    0.8749    0.7499 C   0  0  0  0  0  0  0  0  0  0  0  0
    2.7262    1.7403    0.2503 C   0  0  0  0  0  0  0  0  0  0  0  0
    2.3734    2.8763    0.9768 C   0  0  0  0  0  0  0  0  0  0  0  0
    3.0148    3.1566    2.1838 C   0  0  0  0  0  0  0  0  0  0  0  0
    4.0178    2.3100    2.6604 C   0  0  0  0  0  0  0  0  0  0  0  0
    4.3688    1.1694    1.9387 C   0  0  0  0  0  0  0  0  0  0  0  0
    2.0143   -1.4419    0.7137 C   0  0  0  0  0  0  0  0  0  0  0  0
   -2.9033   -0.0703   -1.0584 C   0  0  0  0  0  0  0  0  0  0  0  0
   -4.3149   -0.3708   -1.5160 C   0  0  0  0  0  0  0  0  0  0  0  0
   -1.8716   -0.6743   -1.9886 C   0  0  0  0  0  0  0  0  0  0  0  0
  1  2  1  0
  2  3  1  0
  2  4  1  0
  4  5  1  0
  5  6  2  0
  5  7  1  0
  7  8  1  0
  8  9  1  0
  9 10  3  0
  8 11  1  0
 11 12  2  0
 12 13  1  0
 13 14  2  0
 14 15  1  0
 15 16  1  0
 16 17  1  0
 17 18  2  0
 18 19  1  0
 19 20  2  0
 20 21  1  0
 21 22  2  0
 15 23  2  0
  4 24  1  0
 24 25  1  0
 24 26  1  0
 24  2  1  0
 23 11  1  0
 22 17  1  0
M  END
>  <target>  (902) 
-6.025

$$$$

     RDKit          3D

 22 21  0  0  0  0  0  0  0  0999 V2000
   -4.9061    1.3273   -2.4165 C   0  0  0  0  0  0  0  0  0  0  0  0
   -3.7957    0.4575   -2.5723 O   0  0  0  0  0  0  0  0  0  0  0  0
   -3.4914   -0.4309   -1.4777 C   0  0  0  0  0  0  0  0  0  0  0  0
   -4.6481   -1.4141   -1.2465 C   0  0  0  0  0  0  0  0  0  0  0  0
   -2.2692   -1.2234   -1.9701 C   0  0  0  0  0  0  0  0  0  0  0  0
   -3.1489    0.3759   -0.2006 C   0  0  0  0  0  0  0  0  0  0  0  0
   -2.6358   -0.4476    0.9873 C   0  0  0  0  0  0  0  0  0  0  0  0
   -2.3352    0.4547    2.1904 C   0  0  0  0  0  0  0  0  0  0  0  0
   -1.8640   -0.3181    3.4406 C   0  0  0  0  0  0  0  0  0  0  0  0
   -1.7301    0.6493    4.6232 C   0  0  0  0  0  0  0  0  0  0  0  0
   -0.5683   -1.1336    3.2327 C   0  0  0  0  0  0  0  0  0  0  0  0
    0.6175   -0.3291    2.7681 C   0  0  0  0  0  0  0  0  0  0  0  0
    1.2081   -0.5016    1.5738 C   0  0  0  0  0  0  0  0  0  0  0  0
    2.3500    0.2494    1.0471 C   0  0  0  0  0  0  0  0  0  0  0  0
    3.0277    1.2287    1.9730 C   0  0  0  0  0  0  0  0  0  0  0  0
    2.7324    0.0080   -0.2238 C   0  0  0  0  0  0  0  0  0  0  0  0
    3.8206    0.6884   -0.9652 C   0  0  0  0  0  0  0  0  0  0  0  0
    4.3331    1.7560   -0.6821 O   0  0  0  0  0  0  0  0  0  0  0  0
    4.1293   -0.0933   -2.0330 O   0  0  0  0  0  0  0  0  0  0  0  0
    5.1743    0.3995   -2.8921 C   0  0  0  0  0  0  0  0  0  0  0  0
    4.9616   -0.2292   -4.2638 C   0  0  0  0  0  0  0  0  0  0  0  0
    6.5324    0.0049   -2.3227 C   0  0  0  0  0  0  0  0  0  0  0  0
  1  2  1  0
  2  3  1  0
  3  4  1  0
  3  5  1  0
  3  6  1  0
  6  7  1  0
  7  8  1  0
  8  9  1  0
  9 10  1  0
  9 11  1  0
 11 12  1  0
 12 13  2  3
 13 14  1  0
 14 15  1  0
 14 16  2  3
 16 17  1  0
 17 18  2  0
 17 19  1  0
 19 20  1  0
 20 21  1  0
 20 22  1  0
M  END
>  <target>  (903) 
-5.19

$$$$

     RDKit          3D

  7  6  0  0  0  0  0  0  0  0999 V2000
    3.0468    0.3019   -0.0584 C   0  0  0  0  0  0  0  0  0  0  0  0
    1.8004   -0.5615   -0.0513 C   0  0  0  0  0  0  0  0  0  0  0  0
    0.6575    0.3025   -0.0576 O   0  0  0  0  0  0  0  0  0  0  0  0
   -0.5383   -0.3532   -0.0520 C   0  0  0  0  0  0  0  0  0  0  0  0
   -0.6733   -1.5682   -0.0426 O   0  0  0  0  0  0  0  0  0  0  0  0
   -1.6615    0.6557   -0.0594 C   0  0  0  0  0  0  0  0  0  0  0  0
   -3.0263   -0.0102   -0.0538 C   0  0  0  0  0  0  0  0  0  0  0  0
  1  2  1  0
  2  3  1  0
  3  4  1  0
  4  5  2  0
  4  6  1  0
  6  7  1  0
M  END
>  <target>  (904) 
-0.66

$$$$

     RDKit          3D

 16 16  0  0  0  0  0  0  0  0999 V2000
   -0.9510    4.1014    0.4283 C   0  0  0  0  0  0  0  0  0  0  0  0
    0.5797    3.3047    0.9707 S   0  0  0  0  0  0  0  0  0  0  0  0
    0.3885    1.7157    0.1924 C   0  0  0  0  0  0  0  0  0  0  0  0
    1.5048    1.0320   -0.0202 N   0  0  0  0  0  0  0  0  0  0  0  0
    1.3379   -0.1514   -0.5850 C   0  0  0  0  0  0  0  0  0  0  0  0
    2.4308   -0.9521   -0.8725 N   0  0  0  0  0  0  0  0  0  0  0  0
    3.6074   -0.8323   -0.0223 C   0  0  0  0  0  0  0  0  0  0  0  0
    4.7792   -1.5066   -0.7371 C   0  0  0  0  0  0  0  0  0  0  0  0
    3.3676   -1.4974    1.3330 C   0  0  0  0  0  0  0  0  0  0  0  0
    0.1575   -0.6607   -0.9105 N   0  0  0  0  0  0  0  0  0  0  0  0
   -0.8985    0.0983   -0.6539 C   0  0  0  0  0  0  0  0  0  0  0  0
   -2.1223   -0.4433   -1.0121 N   0  0  0  0  0  0  0  0  0  0  0  0
   -3.2835   -0.0937   -0.2053 C   0  0  0  0  0  0  0  0  0  0  0  0
   -3.2466   -0.8150    1.1420 C   0  0  0  0  0  0  0  0  0  0  0  0
   -4.5383   -0.4958   -0.9813 C   0  0  0  0  0  0  0  0  0  0  0  0
   -0.8366    1.2949   -0.0945 N   0  0  0  0  0  0  0  0  0  0  0  0
  1  2  1  0
  2  3  1  0
  3  4  2  0
  4  5  1  0
  5  6  1  0
  6  7  1  0
  7  8  1  0
  7  9  1  0
  5 10  2  0
 10 11  1  0
 11 12  1  0
 12 13  1  0
 13 14  1  0
 13 15  1  0
 11 16  2  0
 16  3  1  0
M  END
>  <target>  (905) 
-4.1

$$$$

     RDKit          3D

 16 16  0  0  0  0  0  0  0  0999 V2000
   -3.2724   -0.9094   -1.4314 C   0  0  0  0  0  0  0  0  0  0  0  0
   -2.5073    0.4159   -1.4535 C   0  0  0  0  0  0  0  0  0  0  0  0
   -3.4428    1.5604   -1.4178 C   0  0  0  0  0  0  0  0  0  0  0  0
   -4.2018    2.4916   -1.3977 C   0  0  0  0  0  0  0  0  0  0  0  0
   -1.5189    0.4842   -0.3659 N   0  0  0  0  0  0  0  0  0  0  0  0
   -1.9887    0.8403    0.9716 C   0  0  0  0  0  0  0  0  0  0  0  0
   -0.2462   -0.0233   -0.6342 C   0  0  0  0  0  0  0  0  0  0  0  0
   -0.0059   -0.6389   -1.6694 O   0  0  0  0  0  0  0  0  0  0  0  0
    0.6872    0.2623    0.3387 N   0  0  0  0  0  0  0  0  0  0  0  0
    2.0064   -0.2249    0.4298 C   0  0  0  0  0  0  0  0  0  0  0  0
    2.4935   -1.2927   -0.3284 C   0  0  0  0  0  0  0  0  0  0  0  0
    3.8134   -1.7308   -0.1723 C   0  0  0  0  0  0  0  0  0  0  0  0
    4.6484   -1.1056    0.7489 C   0  0  0  0  0  0  0  0  0  0  0  0
    6.2699   -1.6448    0.9414 Cl  0  0  0  0  0  0  0  0  0  0  0  0
    4.1742   -0.0476    1.5190 C   0  0  0  0  0  0  0  0  0  0  0  0
    2.8551    0.3886    1.3613 C   0  0  0  0  0  0  0  0  0  0  0  0
  1  2  1  0
  2  3  1  0
  3  4  3  0
  2  5  1  0
  5  6  1  0
  5  7  1  0
  7  8  2  0
  7  9  1  0
  9 10  1  0
 10 11  2  0
 11 12  1  0
 12 13  2  0
 13 14  1  0
 13 15  1  0
 15 16  2  0
 16 10  1  0
M  END
>  <target>  (906) 
-3.9

$$$$

     RDKit          3D

 12 13  0  0  0  0  0  0  0  0999 V2000
   -2.5637   -1.6801   -0.2269 C   0  0  0  0  0  0  0  0  0  0  0  0
   -1.3462   -0.8050   -0.1058 C   0  0  0  0  0  0  0  0  0  0  0  0
   -0.0707   -1.3799   -0.2365 C   0  0  0  0  0  0  0  0  0  0  0  0
    1.0975   -0.6074   -0.1319 C   0  0  0  0  0  0  0  0  0  0  0  0
    2.3727   -1.1827   -0.2627 C   0  0  0  0  0  0  0  0  0  0  0  0
    3.5237   -0.4004   -0.1560 C   0  0  0  0  0  0  0  0  0  0  0  0
    3.4148    0.9660    0.0826 C   0  0  0  0  0  0  0  0  0  0  0  0
    2.1548    1.5518    0.2148 C   0  0  0  0  0  0  0  0  0  0  0  0
    0.9872    0.7774    0.1099 C   0  0  0  0  0  0  0  0  0  0  0  0
   -0.2883    1.3506    0.2403 C   0  0  0  0  0  0  0  0  0  0  0  0
   -1.4563    0.5765    0.1355 C   0  0  0  0  0  0  0  0  0  0  0  0
   -2.7967    1.2431    0.2836 C   0  0  0  0  0  0  0  0  0  0  0  0
  1  2  1  0
  2  3  2  0
  3  4  1  0
  4  5  2  0
  5  6  1  0
  6  7  2  0
  7  8  1  0
  8  9  2  0
  9 10  1  0
 10 11  2  0
 11 12  1  0
 11  2  1  0
  9  4  1  0
M  END
>  <target>  (907) 
-4.72

$$$$

     RDKit          3D

 15 16  0  0  0  0  0  0  0  0999 V2000
   -5.2292    0.1207   -0.3193 Cl  0  0  0  0  0  0  0  0  0  0  0  0
   -3.5124    0.0712   -0.2222 C   0  0  0  0  0  0  0  0  0  0  0  0
   -2.8905   -0.9041    0.5531 C   0  0  0  0  0  0  0  0  0  0  0  0
   -1.4955   -0.9429    0.6319 C   0  0  0  0  0  0  0  0  0  0  0  0
   -0.7104   -0.0099   -0.0650 C   0  0  0  0  0  0  0  0  0  0  0  0
   -1.3575    0.9675   -0.8387 C   0  0  0  0  0  0  0  0  0  0  0  0
   -2.7524    1.0077   -0.9185 C   0  0  0  0  0  0  0  0  0  0  0  0
    0.7562   -0.0442    0.0242 C   0  0  0  0  0  0  0  0  0  0  0  0
    1.4108    0.8998    0.8384 C   0  0  0  0  0  0  0  0  0  0  0  0
    2.8015    0.9018    0.9543 C   0  0  0  0  0  0  0  0  0  0  0  0
    3.5728    2.0664    1.9579 Cl  0  0  0  0  0  0  0  0  0  0  0  0
    3.5691   -0.0316    0.2643 C   0  0  0  0  0  0  0  0  0  0  0  0
    2.9404   -0.9743   -0.5495 C   0  0  0  0  0  0  0  0  0  0  0  0
    1.5456   -0.9821   -0.6704 C   0  0  0  0  0  0  0  0  0  0  0  0
    0.8444   -2.1724   -1.7123 Cl  0  0  0  0  0  0  0  0  0  0  0  0
  1  2  1  0
  2  3  2  0
  3  4  1  0
  4  5  2  0
  5  6  1  0
  6  7  2  0
  5  8  1  0
  8  9  2  0
  9 10  1  0
 10 11  1  0
 10 12  2  0
 12 13  1  0
 13 14  2  0
 14 15  1  0
  7  2  1  0
 14  8  1  0
M  END
>  <target>  (908) 
-6.25

$$$$

     RDKit          3D

 18 19  0  0  0  0  0  0  0  0999 V2000
    5.2773    0.3695   -0.0052 Cl  0  0  0  0  0  0  0  0  0  0  0  0
    3.5624    0.2433   -0.0391 C   0  0  0  0  0  0  0  0  0  0  0  0
    2.8695    0.5712   -1.2015 C   0  0  0  0  0  0  0  0  0  0  0  0
    1.4762    0.4710   -1.2319 C   0  0  0  0  0  0  0  0  0  0  0  0
    0.7594    0.0398   -0.1008 C   0  0  0  0  0  0  0  0  0  0  0  0
    1.4849   -0.2829    1.0642 C   0  0  0  0  0  0  0  0  0  0  0  0
    0.6855   -0.8095    2.5064 Cl  0  0  0  0  0  0  0  0  0  0  0  0
    2.8783   -0.1827    1.0952 C   0  0  0  0  0  0  0  0  0  0  0  0
   -0.7101   -0.0550   -0.1707 C   0  0  0  0  0  0  0  0  0  0  0  0
   -1.4721    1.0773    0.1595 C   0  0  0  0  0  0  0  0  0  0  0  0
   -2.8683    1.0436    0.1234 C   0  0  0  0  0  0  0  0  0  0  0  0
   -3.6980    2.5005    0.5515 Cl  0  0  0  0  0  0  0  0  0  0  0  0
   -3.5396   -0.1290   -0.2481 C   0  0  0  0  0  0  0  0  0  0  0  0
   -5.2777   -0.1537   -0.2913 Cl  0  0  0  0  0  0  0  0  0  0  0  0
   -2.7952   -1.2744   -0.5866 C   0  0  0  0  0  0  0  0  0  0  0  0
   -3.6136   -2.7385   -1.0574 Cl  0  0  0  0  0  0  0  0  0  0  0  0
   -1.3856   -1.2359   -0.5485 C   0  0  0  0  0  0  0  0  0  0  0  0
   -0.4497   -2.6429   -0.9734 Cl  0  0  0  0  0  0  0  0  0  0  0  0
  1  2  1  0
  2  3  2  0
  3  4  1  0
  4  5  2  0
  5  6  1  0
  6  7  1  0
  6  8  2  0
  5  9  1  0
  9 10  2  0
 10 11  1  0
 11 12  1  0
 11 13  2  0
 13 14  1  0
 13 15  1  0
 15 16  1  0
 15 17  2  0
 17 18  1  0
  8  2  1  0
 17  9  1  0
M  END
>  <target>  (909) 
-7.39

$$$$

     RDKit          3D

  6  5  0  0  0  0  0  0  0  0999 V2000
   -0.0166    1.1365    0.2939 N   0  0  0  0  0  0  0  0  0  0  0  0
   -0.2486   -0.1591   -0.0365 C   0  0  0  0  0  0  0  0  0  0  0  0
   -1.5844   -0.3899   -0.0201 N   0  0  0  0  0  0  0  0  0  0  0  0
    0.5752   -1.1051   -0.3254 N   0  0  0  0  0  0  0  0  0  0  0  0
    1.8810   -0.8224   -0.3197 C   0  0  0  0  0  0  0  0  0  0  0  0
    3.0052   -0.5390   -0.3159 N   0  0  0  0  0  0  0  0  0  0  0  0
  1  2  1  0
  2  3  1  0
  2  4  2  3
  4  5  1  0
  5  6  3  0
M  END
>  <target>  (910) 
-0.31

$$$$

     RDKit          3D

  7  6  0  0  0  0  0  0  0  0999 V2000
   -1.2837   -1.1001   -1.1108 Cl  0  0  0  0  0  0  0  0  0  0  0  0
   -0.5857   -0.0293    0.1175 C   0  0  0  0  0  0  0  0  0  0  0  0
   -1.3247    1.5815    0.0327 Cl  0  0  0  0  0  0  0  0  0  0  0  0
   -0.7293   -0.6949    1.7542 Cl  0  0  0  0  0  0  0  0  0  0  0  0
    0.9205    0.0631   -0.1871 N   0  0  0  0  0  0  0  0  0  0  0  0
    1.4219    1.1723   -0.4408 O   0  0  0  0  0  0  0  0  0  0  0  0
    1.5810   -0.9926   -0.1657 O   0  0  0  0  0  0  0  0  0  0  0  0
  1  2  1  0
  2  3  1  0
  2  4  1  0
  2  5  1  0
  5  6  1  0
  5  7  2  0
M  CHG  2   5   1   6  -1
M  END
>  <target>  (911) 
-2.0

$$$$

     RDKit          3D

 14 15  0  0  0  0  0  0  0  0999 V2000
    0.5875    2.7712    0.2033 Cl  0  0  0  0  0  0  0  0  0  0  0  0
    1.4300    1.2675    0.0190 C   0  0  0  0  0  0  0  0  0  0  0  0
    2.8270    1.3312   -0.0646 C   0  0  0  0  0  0  0  0  0  0  0  0
    3.5749    0.1671   -0.2133 C   0  0  0  0  0  0  0  0  0  0  0  0
    2.9261   -1.0623   -0.2788 C   0  0  0  0  0  0  0  0  0  0  0  0
    1.5292   -1.1292   -0.1955 C   0  0  0  0  0  0  0  0  0  0  0  0
    0.8143   -2.7057   -0.2869 Cl  0  0  0  0  0  0  0  0  0  0  0  0
    0.7471    0.0349   -0.0446 C   0  0  0  0  0  0  0  0  0  0  0  0
   -0.7214   -0.0337    0.0431 C   0  0  0  0  0  0  0  0  0  0  0  0
   -1.5130    0.0371   -1.1142 C   0  0  0  0  0  0  0  0  0  0  0  0
   -2.9055   -0.0280   -1.0306 C   0  0  0  0  0  0  0  0  0  0  0  0
   -3.5241   -0.1647    0.2103 C   0  0  0  0  0  0  0  0  0  0  0  0
   -2.7526   -0.2364    1.3682 C   0  0  0  0  0  0  0  0  0  0  0  0
   -1.3600   -0.1714    1.2857 C   0  0  0  0  0  0  0  0  0  0  0  0
  1  2  1  0
  2  3  2  0
  3  4  1  0
  4  5  2  0
  5  6  1  0
  6  7  1  0
  6  8  2  0
  8  9  1  0
  9 10  2  0
 10 11  1  0
 11 12  2  0
 12 13  1  0
 13 14  2  0
  8  2  1  0
 14  9  1  0
M  END
>  <target>  (912) 
-5.21

$$$$

     RDKit          3D

 10 10  0  0  0  0  0  0  0  0999 V2000
    3.1845   -0.1548   -0.4264 C   0  0  0  0  0  0  0  0  0  0  0  0
    2.2281    0.6758    0.2205 O   0  0  0  0  0  0  0  0  0  0  0  0
    0.9101    0.3629    0.0341 C   0  0  0  0  0  0  0  0  0  0  0  0
    0.4178   -0.6956   -0.7319 C   0  0  0  0  0  0  0  0  0  0  0  0
   -0.9618   -0.9028   -0.8381 C   0  0  0  0  0  0  0  0  0  0  0  0
   -1.8495   -0.0501   -0.1772 C   0  0  0  0  0  0  0  0  0  0  0  0
   -3.3063   -0.2638   -0.2855 C   0  0  0  0  0  0  0  0  0  0  0  0
   -3.7835   -1.1784   -0.9456 O   0  0  0  0  0  0  0  0  0  0  0  0
   -1.3666    1.0101    0.5904 C   0  0  0  0  0  0  0  0  0  0  0  0
    0.0123    1.2109    0.6919 C   0  0  0  0  0  0  0  0  0  0  0  0
  1  2  1  0
  2  3  1  0
  3  4  2  0
  4  5  1  0
  5  6  2  0
  6  7  1  0
  7  8  2  0
  6  9  1  0
  9 10  2  0
 10  3  1  0
M  END
>  <target>  (913) 
-1.49

$$$$

     RDKit          3D

 13 13  0  0  0  0  0  0  0  0999 V2000
    3.9520   -0.1532    0.3806 C   0  0  0  0  0  0  0  0  0  0  0  0
    2.5249   -0.0132    0.8495 C   0  0  0  0  0  0  0  0  0  0  0  0
    2.2702    0.1977    2.0294 O   0  0  0  0  0  0  0  0  0  0  0  0
    1.6182   -0.1215   -0.1903 N   0  0  0  0  0  0  0  0  0  0  0  0
    0.2129   -0.0375   -0.1151 C   0  0  0  0  0  0  0  0  0  0  0  0
   -0.4993   -0.1672   -1.3166 C   0  0  0  0  0  0  0  0  0  0  0  0
   -1.8966   -0.0972   -1.3340 C   0  0  0  0  0  0  0  0  0  0  0  0
   -2.5910    0.1043   -0.1363 C   0  0  0  0  0  0  0  0  0  0  0  0
   -1.8945    0.2346    1.0693 C   0  0  0  0  0  0  0  0  0  0  0  0
   -0.4956    0.1627    1.0735 C   0  0  0  0  0  0  0  0  0  0  0  0
   -4.0570    0.1788   -0.1462 N   0  0  0  0  0  0  0  0  0  0  0  0
   -4.6314    0.0588   -1.2381 O   0  0  0  0  0  0  0  0  0  0  0  0
   -4.6343    0.3568    0.9356 O   0  0  0  0  0  0  0  0  0  0  0  0
  1  2  1  0
  2  3  2  0
  2  4  1  0
  4  5  1  0
  5  6  2  0
  6  7  1  0
  7  8  2  0
  8  9  1  0
  9 10  2  0
  8 11  1  0
 11 12  1  0
 11 13  2  0
 10  5  1  0
M  CHG  2  11   1  12  -1
M  END
>  <target>  (914) 
-2.6919999999999997

$$$$

     RDKit          3D

 11 10  0  0  0  0  0  0  0  0999 V2000
   -4.8851    0.6839    0.4637 C   0  0  0  0  0  0  0  0  0  0  0  0
   -3.4510    0.3251    0.8191 C   0  0  0  0  0  0  0  0  0  0  0  0
   -2.6307   -0.0041   -0.4279 C   0  0  0  0  0  0  0  0  0  0  0  0
   -1.1884   -0.3645   -0.0660 C   0  0  0  0  0  0  0  0  0  0  0  0
   -0.3690   -0.6967   -1.3170 C   0  0  0  0  0  0  0  0  0  0  0  0
    1.0712   -1.0864   -0.9850 C   0  0  0  0  0  0  0  0  0  0  0  0
    1.9169    0.0862   -0.5425 C   0  0  0  0  0  0  0  0  0  0  0  0
    1.6323    1.2654   -0.6941 O   0  0  0  0  0  0  0  0  0  0  0  0
    3.0667   -0.3744    0.0280 O   0  0  0  0  0  0  0  0  0  0  0  0
    3.9551    0.6577    0.4731 C   0  0  0  0  0  0  0  0  0  0  0  0
    5.1750   -0.0002    1.0877 C   0  0  0  0  0  0  0  0  0  0  0  0
  1  2  1  0
  2  3  1  0
  3  4  1  0
  4  5  1  0
  5  6  1  0
  6  7  1  0
  7  8  2  0
  7  9  1  0
  9 10  1  0
 10 11  1  0
M  END
>  <target>  (915) 
-2.74

$$$$

     RDKit          3D

 11 11  0  0  0  0  0  0  0  0999 V2000
    3.6803   -0.2761    0.4314 C   0  0  0  0  0  0  0  0  0  0  0  0
    2.3083    0.3350    0.5736 C   0  0  0  0  0  0  0  0  0  0  0  0
    2.1531    1.3907    1.1768 O   0  0  0  0  0  0  0  0  0  0  0  0
    1.3268   -0.4426   -0.0139 N   0  0  0  0  0  0  0  0  0  0  0  0
   -0.0580   -0.1820   -0.0685 C   0  0  0  0  0  0  0  0  0  0  0  0
   -0.8618   -1.1312   -0.7150 C   0  0  0  0  0  0  0  0  0  0  0  0
   -2.2433   -0.9467   -0.8125 C   0  0  0  0  0  0  0  0  0  0  0  0
   -2.8247    0.1877   -0.2642 C   0  0  0  0  0  0  0  0  0  0  0  0
   -4.1747    0.3311   -0.3800 O   0  0  0  0  0  0  0  0  0  0  0  0
   -2.0458    1.1409    0.3801 C   0  0  0  0  0  0  0  0  0  0  0  0
   -0.6618    0.9540    0.4766 C   0  0  0  0  0  0  0  0  0  0  0  0
  1  2  1  0
  2  3  2  0
  2  4  1  0
  4  5  1  0
  5  6  2  0
  6  7  1  0
  7  8  2  0
  8  9  1  0
  8 10  1  0
 10 11  2  0
 11  5  1  0
M  END
>  <target>  (916) 
-1.03

$$$$

     RDKit          3D

  9 10  0  0  0  0  0  0  0  0999 V2000
   -1.8589   -0.7348    0.0412 C   0  0  0  0  0  0  0  0  0  0  0  0
   -1.8805    0.6604    0.0824 C   0  0  0  0  0  0  0  0  0  0  0  0
   -0.6959    1.4047    0.0641 C   0  0  0  0  0  0  0  0  0  0  0  0
    0.5029    0.6876    0.0030 C   0  0  0  0  0  0  0  0  0  0  0  0
    1.8104    1.0961   -0.0291 N   0  0  0  0  0  0  0  0  0  0  0  0
    2.7016    0.0897   -0.0882 N   0  0  0  0  0  0  0  0  0  0  0  0
    1.9322   -1.0025   -0.0940 C   0  0  0  0  0  0  0  0  0  0  0  0
    0.5533   -0.7011   -0.0389 C   0  0  0  0  0  0  0  0  0  0  0  0
   -0.6462   -1.4330   -0.0198 C   0  0  0  0  0  0  0  0  0  0  0  0
  1  2  2  0
  2  3  1  0
  3  4  2  0
  4  5  1  0
  5  6  1  0
  6  7  2  0
  7  8  1  0
  8  9  2  0
  8  4  1  0
  9  1  1  0
M  END
>  <target>  (917) 
-2.16

$$$$

     RDKit          3D

 31 35  0  0  0  0  0  0  0  0999 V2000
   -3.3128   -0.8377    3.2970 C   0  0  0  0  0  0  0  0  0  0  0  0
   -3.7274   -0.7113    1.8359 C   0  0  0  0  0  0  0  0  0  0  0  0
   -5.2394   -0.5500    1.7246 C   0  0  0  0  0  0  0  0  0  0  0  0
   -3.3492   -1.8865    1.1279 O   0  0  0  0  0  0  0  0  0  0  0  0
   -2.3589   -1.4955    0.1810 C   0  0  0  0  0  0  0  0  0  0  0  0
   -0.9618   -1.8140    0.7133 C   0  0  0  0  0  0  0  0  0  0  0  0
   -0.2465   -0.4639    0.9420 C   0  0  0  0  0  0  0  0  0  0  0  0
    1.2961   -0.6081    0.8119 C   0  0  0  0  0  0  0  0  0  0  0  0
    2.0302    0.4640    1.6460 C   0  0  0  0  0  0  0  0  0  0  0  0
    3.5507    0.3492    1.5700 C   0  0  0  0  0  0  0  0  0  0  0  0
    4.0124    0.3210    0.1363 C   0  0  0  0  0  0  0  0  0  0  0  0
    4.8890    1.2309   -0.3247 C   0  0  0  0  0  0  0  0  0  0  0  0
    5.3021    1.2648   -1.7437 C   0  0  0  0  0  0  0  0  0  0  0  0
    6.0865    2.1083   -2.1592 O   0  0  0  0  0  0  0  0  0  0  0  0
    4.7291    0.2448   -2.6446 C   0  0  0  0  0  0  0  0  0  0  0  0
    3.8594   -0.6656   -2.1872 C   0  0  0  0  0  0  0  0  0  0  0  0
    3.3768   -0.7564   -0.7424 C   0  0  0  0  0  0  0  0  0  0  0  0
    3.8719   -2.1421   -0.2495 C   0  0  0  0  0  0  0  0  0  0  0  0
    1.8009   -0.6791   -0.6610 C   0  0  0  0  0  0  0  0  0  0  0  0
    1.3307   -1.8649   -1.1905 F   0  0  0  0  0  0  0  0  0  0  0  0
    1.1616    0.4311   -1.5366 C   0  0  0  0  0  0  0  0  0  0  0  0
    1.6468    1.7312   -1.2327 O   0  0  0  0  0  0  0  0  0  0  0  0
   -0.3725    0.3987   -1.4524 C   0  0  0  0  0  0  0  0  0  0  0  0
   -0.9636    0.5211   -0.0233 C   0  0  0  0  0  0  0  0  0  0  0  0
   -0.8772    1.9788    0.4723 C   0  0  0  0  0  0  0  0  0  0  0  0
   -2.4523    0.0187    0.0516 C   0  0  0  0  0  0  0  0  0  0  0  0
   -3.0819    0.4334    1.2706 O   0  0  0  0  0  0  0  0  0  0  0  0
   -3.3037    0.4362   -1.1607 C   0  0  0  0  0  0  0  0  0  0  0  0
   -3.3155   -0.2058   -2.2170 O   0  0  0  0  0  0  0  0  0  0  0  0
   -4.1381    1.7061   -1.0380 C   0  0  0  0  0  0  0  0  0  0  0  0
   -4.4728    2.2211   -2.3205 O   0  0  0  0  0  0  0  0  0  0  0  0
  1  2  1  0
  2  3  1  0
  2  4  1  0
  4  5  1  0
  5  6  1  0
  6  7  1  0
  7  8  1  0
  8  9  1  0
  9 10  1  0
 10 11  1  0
 11 12  2  0
 12 13  1  0
 13 14  2  0
 13 15  1  0
 15 16  2  0
 16 17  1  0
 17 18  1  0
 17 19  1  0
 19 20  1  0
 19 21  1  0
 21 22  1  0
 21 23  1  0
 23 24  1  0
 24 25  1  0
 24 26  1  0
 26 27  1  0
 26 28  1  0
 28 29  2  0
 28 30  1  0
 30 31  1  0
 17 11  1  0
 19  8  1  0
 24  7  1  0
 26  5  1  0
 27  2  1  0
M  END
>  <target>  (918) 
-4.31

$$$$

     RDKit          3D

 11 12  0  0  0  0  0  0  0  0999 V2000
   -2.6963   -1.0476   -0.1473 N   0  0  0  0  0  0  0  0  0  0  0  0
   -1.4685   -0.4727   -0.0852 C   0  0  0  0  0  0  0  0  0  0  0  0
   -0.3973   -1.2069   -0.2292 N   0  0  0  0  0  0  0  0  0  0  0  0
    0.7460   -0.4919   -0.1383 C   0  0  0  0  0  0  0  0  0  0  0  0
    2.0092   -0.9886   -0.2492 N   0  0  0  0  0  0  0  0  0  0  0  0
    2.8716    0.0672   -0.0968 C   0  0  0  0  0  0  0  0  0  0  0  0
    2.2338    1.2036    0.1026 N   0  0  0  0  0  0  0  0  0  0  0  0
    0.9061    0.8570    0.0744 C   0  0  0  0  0  0  0  0  0  0  0  0
   -0.2893    1.6576    0.2229 C   0  0  0  0  0  0  0  0  0  0  0  0
   -0.3272    2.8715    0.3977 O   0  0  0  0  0  0  0  0  0  0  0  0
   -1.4449    0.8899    0.1418 N   0  0  0  0  0  0  0  0  0  0  0  0
  1  2  1  0
  2  3  2  0
  3  4  1  0
  4  5  1  0
  5  6  1  0
  6  7  2  0
  7  8  1  0
  8  9  1  0
  9 10  2  0
  9 11  1  0
  8  4  2  0
 11  2  1  0
M  END
>  <target>  (919) 
-3.583

$$$$

     RDKit          3D

  5  4  0  0  0  0  0  0  0  0999 V2000
   -1.8223    0.0805   -0.3715 C   0  0  0  0  0  0  0  0  0  0  0  0
   -0.5044   -0.4635   -0.4520 O   0  0  0  0  0  0  0  0  0  0  0  0
    0.4434    0.2933    0.1659 C   0  0  0  0  0  0  0  0  0  0  0  0
    0.2414    1.3483    0.7502 O   0  0  0  0  0  0  0  0  0  0  0  0
    1.7868   -0.3553    0.0284 C   0  0  0  0  0  0  0  0  0  0  0  0
  1  2  1  0
  2  3  1  0
  3  4  2  0
  3  5  1  0
M  END
>  <target>  (920) 
0.46

$$$$

     RDKit          3D

 21 24  0  0  0  0  0  0  0  0999 V2000
   -2.8719    1.2965   -1.4733 C   0  0  0  0  0  0  0  0  0  0  0  0
   -2.6831    0.1604   -0.4531 C   0  0  0  0  0  0  0  0  0  0  0  0
   -2.0699   -1.0709   -1.1521 C   0  0  0  0  0  0  0  0  0  0  0  0
   -0.5673   -0.9434   -1.4127 C   0  0  0  0  0  0  0  0  0  0  0  0
    0.2227   -0.7070   -0.1063 C   0  0  0  0  0  0  0  0  0  0  0  0
   -0.3084    0.5616    0.6148 C   0  0  0  0  0  0  0  0  0  0  0  0
    0.1912    1.8459   -0.0626 C   0  0  0  0  0  0  0  0  0  0  0  0
    1.7083    1.8839   -0.1532 C   0  0  0  0  0  0  0  0  0  0  0  0
    2.2757    0.6623   -0.8994 C   0  0  0  0  0  0  0  0  0  0  0  0
    3.8071    0.7696   -0.9525 C   0  0  0  0  0  0  0  0  0  0  0  0
    4.4136    0.5003    0.4051 C   0  0  0  0  0  0  0  0  0  0  0  0
    5.2693    1.2412    0.8857 O   0  0  0  0  0  0  0  0  0  0  0  0
    3.9895   -0.7707    1.0980 C   0  0  0  0  0  0  0  0  0  0  0  0
    2.4687   -0.9019    1.1052 C   0  0  0  0  0  0  0  0  0  0  0  0
    1.7940   -0.6901   -0.2880 C   0  0  0  0  0  0  0  0  0  0  0  0
    2.2272   -1.8633   -1.2060 C   0  0  0  0  0  0  0  0  0  0  0  0
   -1.8456    0.5765    0.7789 C   0  0  0  0  0  0  0  0  0  0  0  0
   -2.3104   -0.3793    1.9008 C   0  0  0  0  0  0  0  0  0  0  0  0
   -3.6895   -0.9078    1.5031 C   0  0  0  0  0  0  0  0  0  0  0  0
   -4.0421   -0.2059    0.1952 C   0  0  0  0  0  0  0  0  0  0  0  0
   -4.8204    0.9523    0.4895 O   0  0  0  0  0  0  0  0  0  0  0  0
  1  2  1  0
  2  3  1  0
  3  4  1  0
  4  5  1  0
  5  6  1  0
  6  7  1  0
  7  8  1  0
  8  9  1  0
  9 10  1  0
 10 11  1  0
 11 12  2  0
 11 13  1  0
 13 14  1  0
 14 15  1  0
 15 16  1  0
  6 17  1  0
 17 18  1  0
 18 19  1  0
 19 20  1  0
 20 21  1  0
 15  5  1  0
 15  9  1  0
 17  2  1  0
 20  2  1  0
M  END
>  <target>  (921) 
-4.743

$$$$

     RDKit          3D

  7  6  0  0  0  0  0  0  0  0999 V2000
   -2.3826    1.7151   -0.0469 C   0  0  0  0  0  0  0  0  0  0  0  0
   -1.2567    0.9797   -0.7570 C   0  0  0  0  0  0  0  0  0  0  0  0
   -0.4325    0.1380    0.2224 C   0  0  0  0  0  0  0  0  0  0  0  0
    0.7255   -0.5834   -0.4745 C   0  0  0  0  0  0  0  0  0  0  0  0
    0.2048   -1.5130   -1.4171 O   0  0  0  0  0  0  0  0  0  0  0  0
    1.5557   -1.3605    0.5047 C   0  0  0  0  0  0  0  0  0  0  0  0
    2.8632   -1.1625    0.7188 C   0  0  0  0  0  0  0  0  0  0  0  0
  1  2  1  0
  2  3  1  0
  3  4  1  0
  4  5  1  0
  4  6  1  0
  6  7  2  0
M  END
>  <target>  (922) 
-0.59

$$$$

     RDKit          3D

 39 45  0  0  0  0  0  0  0  0999 V2000
    2.9037   -0.2435    1.4911 O   0  0  0  0  0  0  0  0  0  0  0  0
    2.5544   -0.1716    0.0902 C   0  0  0  0  0  0  0  0  0  0  0  0
    1.1860   -0.8101   -0.0070 C   0  0  0  0  0  0  0  0  0  0  0  0
    0.6474   -1.6888   -0.8835 C   0  0  0  0  0  0  0  0  0  0  0  0
   -0.7719   -1.9872   -0.4211 C   0  0  0  0  0  0  0  0  0  0  0  0
   -0.6220   -2.8307    0.8574 C   0  0  0  0  0  0  0  0  0  0  0  0
   -0.0613   -1.7957    1.8814 C   0  0  0  0  0  0  0  0  0  0  0  0
    0.1085   -0.5164    1.0329 C   0  0  0  0  0  0  0  0  0  0  0  0
   -1.1366   -0.6431    0.1791 C   0  0  0  0  0  0  0  0  0  0  0  0
   -2.1960    0.1789    0.0296 C   0  0  0  0  0  0  0  0  0  0  0  0
   -2.1318    1.4790    0.7357 C   0  0  0  0  0  0  0  0  0  0  0  0
   -2.7424    1.6385    1.9846 C   0  0  0  0  0  0  0  0  0  0  0  0
   -2.6612    2.8609    2.6544 C   0  0  0  0  0  0  0  0  0  0  0  0
   -1.9769    3.9310    2.0786 C   0  0  0  0  0  0  0  0  0  0  0  0
   -1.3721    3.7813    0.8321 C   0  0  0  0  0  0  0  0  0  0  0  0
   -1.4478    2.5593    0.1627 C   0  0  0  0  0  0  0  0  0  0  0  0
   -3.3811   -0.2464   -0.7587 C   0  0  0  0  0  0  0  0  0  0  0  0
   -4.1623    0.6728   -1.4541 C   0  0  0  0  0  0  0  0  0  0  0  0
   -5.2952    0.2224   -2.1294 C   0  0  0  0  0  0  0  0  0  0  0  0
   -5.6226   -1.1268   -2.0882 C   0  0  0  0  0  0  0  0  0  0  0  0
   -4.8019   -1.9735   -1.3663 C   0  0  0  0  0  0  0  0  0  0  0  0
   -3.7013   -1.5617   -0.7027 N   0  0  0  0  0  0  0  0  0  0  0  0
   -1.1539   -1.6929    2.9138 C   0  0  0  0  0  0  0  0  0  0  0  0
   -1.1462   -0.9694    3.8967 O   0  0  0  0  0  0  0  0  0  0  0  0
   -2.1585   -2.5492    2.5845 N   0  0  0  0  0  0  0  0  0  0  0  0
   -1.9232   -3.2774    1.4612 C   0  0  0  0  0  0  0  0  0  0  0  0
   -2.6339   -4.1779    1.0430 O   0  0  0  0  0  0  0  0  0  0  0  0
    3.6708   -0.9675   -0.6103 C   0  0  0  0  0  0  0  0  0  0  0  0
    3.8614   -2.3291   -0.2862 C   0  0  0  0  0  0  0  0  0  0  0  0
    4.8657   -3.0921   -0.8869 C   0  0  0  0  0  0  0  0  0  0  0  0
    5.7187   -2.5082   -1.8166 C   0  0  0  0  0  0  0  0  0  0  0  0
    5.5743   -1.1611   -2.1342 C   0  0  0  0  0  0  0  0  0  0  0  0
    4.5678   -0.3973   -1.5323 C   0  0  0  0  0  0  0  0  0  0  0  0
    2.4516    1.3211   -0.2980 C   0  0  0  0  0  0  0  0  0  0  0  0
    1.9933    1.7171   -1.5582 C   0  0  0  0  0  0  0  0  0  0  0  0
    1.9052    3.0756   -1.8497 C   0  0  0  0  0  0  0  0  0  0  0  0
    2.2559    4.0055   -0.8790 C   0  0  0  0  0  0  0  0  0  0  0  0
    2.6850    3.5391    0.3516 C   0  0  0  0  0  0  0  0  0  0  0  0
    2.7968    2.2292    0.6631 N   0  0  0  0  0  0  0  0  0  0  0  0
  1  2  1  0
  2  3  1  0
  3  4  2  0
  4  5  1  0
  5  6  1  0
  6  7  1  0
  7  8  1  0
  8  9  1  0
  9 10  2  3
 10 11  1  0
 11 12  2  0
 12 13  1  0
 13 14  2  0
 14 15  1  0
 15 16  2  0
 10 17  1  0
 17 18  2  0
 18 19  1  0
 19 20  2  0
 20 21  1  0
 21 22  2  0
  7 23  1  0
 23 24  2  0
 23 25  1  0
 25 26  1  0
 26 27  2  0
  2 28  1  0
 28 29  2  0
 29 30  1  0
 30 31  2  0
 31 32  1  0
 32 33  2  0
  2 34  1  0
 34 35  2  0
 35 36  1  0
 36 37  2  0
 37 38  1  0
 38 39  2  0
  8  3  1  0
  9  5  1  0
 16 11  1  0
 22 17  1  0
 26  6  1  0
 33 28  1  0
 39 34  1  0
M  END
>  <target>  (923) 
-3.931

$$$$

     RDKit          3D

  9  8  0  0  0  0  0  0  0  0999 V2000
   -3.8519   -1.5020   -0.2077 C   0  0  0  0  0  0  0  0  0  0  0  0
   -2.7802   -0.4239   -0.1675 C   0  0  0  0  0  0  0  0  0  0  0  0
   -2.1668   -0.2975    1.2289 C   0  0  0  0  0  0  0  0  0  0  0  0
   -1.1127    0.8036    1.2982 C   0  0  0  0  0  0  0  0  0  0  0  0
   -0.0244    0.4686    0.4403 O   0  0  0  0  0  0  0  0  0  0  0  0
    0.9948    1.4654    0.4621 C   0  0  0  0  0  0  0  0  0  0  0  0
    2.1277    1.0489   -0.4712 C   0  0  0  0  0  0  0  0  0  0  0  0
    2.8146   -0.2381   -0.0086 C   0  0  0  0  0  0  0  0  0  0  0  0
    3.9621   -0.6178   -0.9314 C   0  0  0  0  0  0  0  0  0  0  0  0
  1  2  1  0
  2  3  1  0
  3  4  1  0
  4  5  1  0
  5  6  1  0
  6  7  1  0
  7  8  1  0
  8  9  1  0
M  END
>  <target>  (924) 
-1.85

$$$$

     RDKit          3D

 13 12  0  0  0  0  0  0  0  0999 V2000
   -5.9416   -0.3406   -1.4343 C   0  0  0  0  0  0  0  0  0  0  0  0
   -5.6155    0.6544   -0.3312 C   0  0  0  0  0  0  0  0  0  0  0  0
   -4.2246    0.4565    0.2773 C   0  0  0  0  0  0  0  0  0  0  0  0
   -3.0896    0.7168   -0.7169 C   0  0  0  0  0  0  0  0  0  0  0  0
   -1.7026    0.7423   -0.0641 C   0  0  0  0  0  0  0  0  0  0  0  0
   -1.2712   -0.6161    0.4950 C   0  0  0  0  0  0  0  0  0  0  0  0
    0.1144   -0.5916    1.1491 C   0  0  0  0  0  0  0  0  0  0  0  0
    1.2542   -0.3509    0.1566 C   0  0  0  0  0  0  0  0  0  0  0  0
    2.6178   -0.4578    0.8435 C   0  0  0  0  0  0  0  0  0  0  0  0
    3.7594   -0.2138   -0.1449 C   0  0  0  0  0  0  0  0  0  0  0  0
    5.1200   -0.3209    0.5402 C   0  0  0  0  0  0  0  0  0  0  0  0
    6.2619   -0.0791   -0.4382 C   0  0  0  0  0  0  0  0  0  0  0  0
    7.5067   -0.1699    0.2418 O   0  0  0  0  0  0  0  0  0  0  0  0
  1  2  1  0
  2  3  1  0
  3  4  1  0
  4  5  1  0
  5  6  1  0
  6  7  1  0
  7  8  1  0
  8  9  1  0
  9 10  1  0
 10 11  1  0
 11 12  1  0
 12 13  1  0
M  END
>  <target>  (925) 
-4.8

$$$$

     RDKit          3D

 23 25  0  0  0  0  0  0  0  0999 V2000
    1.8785    2.1776    2.5131 C   0  0  0  0  0  0  0  0  0  0  0  0
    0.7355    1.4925    1.7663 C   0  0  0  0  0  0  0  0  0  0  0  0
    1.2087    0.2779    1.0731 N   0  0  0  0  0  0  0  0  0  0  0  0
    0.1857   -0.6768    0.8899 C   0  0  0  0  0  0  0  0  0  0  0  0
   -1.0853   -0.2286    0.7983 N   0  0  0  0  0  0  0  0  0  0  0  0
   -2.0949   -1.0512    0.4629 C   0  0  0  0  0  0  0  0  0  0  0  0
   -3.2925   -0.4453    0.1056 N   0  0  0  0  0  0  0  0  0  0  0  0
   -4.2973   -1.2201   -0.6104 C   0  0  0  0  0  0  0  0  0  0  0  0
   -3.1990    0.9979   -0.2468 C   0  0  0  0  0  0  0  0  0  0  0  0
   -2.4066    1.2753   -1.5505 C   0  0  0  0  0  0  0  0  0  0  0  0
   -0.9936    1.4061   -1.3611 O   0  0  0  0  0  0  0  0  0  0  0  0
   -1.8716   -2.4210    0.4272 C   0  0  0  0  0  0  0  0  0  0  0  0
   -0.5684   -2.9117    0.5408 C   0  0  0  0  0  0  0  0  0  0  0  0
    0.4878   -2.0154    0.6649 C   0  0  0  0  0  0  0  0  0  0  0  0
    1.7952   -2.4985    0.5232 N   0  0  0  0  0  0  0  0  0  0  0  0
    2.8787   -1.8445   -0.0226 C   0  0  0  0  0  0  0  0  0  0  0  0
    3.9319   -2.4738   -0.1477 O   0  0  0  0  0  0  0  0  0  0  0  0
    2.7968   -0.4817   -0.5972 C   0  0  0  0  0  0  0  0  0  0  0  0
    3.6068   -0.2009   -1.7089 C   0  0  0  0  0  0  0  0  0  0  0  0
    3.5884    1.0644   -2.2795 C   0  0  0  0  0  0  0  0  0  0  0  0
    2.7669    2.0139   -1.7087 C   0  0  0  0  0  0  0  0  0  0  0  0
    1.9890    1.7801   -0.6299 N   0  0  0  0  0  0  0  0  0  0  0  0
    2.0015    0.5380   -0.0682 C   0  0  0  0  0  0  0  0  0  0  0  0
  1  2  1  0
  2  3  1  0
  3  4  1  0
  4  5  2  0
  5  6  1  0
  6  7  1  0
  7  8  1  0
  7  9  1  0
  9 10  1  0
 10 11  1  0
  6 12  2  0
 12 13  1  0
 13 14  2  0
 14 15  1  0
 15 16  1  0
 16 17  2  0
 16 18  1  0
 18 19  2  0
 19 20  1  0
 20 21  2  0
 21 22  1  0
 22 23  2  0
 14  4  1  0
 23  3  1  0
 23 18  1  0
M  END
>  <target>  (926) 
-3.36

$$$$

     RDKit          3D

  7  6  0  0  0  0  0  0  0  0999 V2000
    2.8549   -0.1464   -0.1622 C   0  0  0  0  0  0  0  0  0  0  0  0
    1.5057    0.4157    0.2617 C   0  0  0  0  0  0  0  0  0  0  0  0
    0.3538   -0.4595   -0.2459 C   0  0  0  0  0  0  0  0  0  0  0  0
   -1.0458   -0.0041    0.2171 C   0  0  0  0  0  0  0  0  0  0  0  0
   -1.3892    1.4068   -0.2627 C   0  0  0  0  0  0  0  0  0  0  0  0
   -2.1064   -0.9909   -0.2821 C   0  0  0  0  0  0  0  0  0  0  0  0
   -1.0938    0.0061    1.6453 O   0  0  0  0  0  0  0  0  0  0  0  0
  1  2  1  0
  2  3  1  0
  3  4  1  0
  4  5  1  0
  4  6  1  0
  4  7  1  0
M  END
>  <target>  (927) 
-0.49

$$$$

     RDKit          3D

  9  9  0  0  0  0  0  0  0  0999 V2000
    2.2831   -0.3664    0.0263 N   0  0  0  0  0  0  0  0  0  0  0  0
    0.9174   -0.2465   -0.0095 C   0  0  0  0  0  0  0  0  0  0  0  0
    0.2568   -1.1881   -0.6208 N   0  0  0  0  0  0  0  0  0  0  0  0
   -1.1157   -1.1190   -0.6804 C   0  0  0  0  0  0  0  0  0  0  0  0
   -1.8023   -1.9696   -1.2387 O   0  0  0  0  0  0  0  0  0  0  0  0
   -1.7453   -0.0426   -0.0913 N   0  0  0  0  0  0  0  0  0  0  0  0
   -1.0803    0.9649    0.5468 C   0  0  0  0  0  0  0  0  0  0  0  0
    0.2458    0.9214    0.6188 C   0  0  0  0  0  0  0  0  0  0  0  0
    1.0049    1.8604    1.2075 F   0  0  0  0  0  0  0  0  0  0  0  0
  1  2  1  0
  2  3  2  0
  3  4  1  0
  4  5  2  0
  4  6  1  0
  6  7  1  0
  7  8  2  0
  8  9  1  0
  8  2  1  0
M  END
>  <target>  (928) 
-0.972

$$$$

     RDKit          3D

 21 21  0  0  0  0  0  0  0  0999 V2000
    6.9942   -1.3959    1.4750 C   0  0  0  0  0  0  0  0  0  0  0  0
    5.5257   -1.5536    1.1144 C   0  0  0  0  0  0  0  0  0  0  0  0
    4.8689   -0.2034    0.8412 C   0  0  0  0  0  0  0  0  0  0  0  0
    3.3937   -0.3566    0.4787 C   0  0  0  0  0  0  0  0  0  0  0  0
    2.8650    0.9478    0.2406 O   0  0  0  0  0  0  0  0  0  0  0  0
    1.5332    1.0403   -0.0598 C   0  0  0  0  0  0  0  0  0  0  0  0
    1.0713    2.3457   -0.2325 C   0  0  0  0  0  0  0  0  0  0  0  0
   -0.2635    2.5840   -0.5492 C   0  0  0  0  0  0  0  0  0  0  0  0
   -1.1477    1.5065   -0.6805 C   0  0  0  0  0  0  0  0  0  0  0  0
   -2.5470    1.8307   -1.0083 C   0  0  0  0  0  0  0  0  0  0  0  0
   -2.8808    2.4234   -2.0218 O   0  0  0  0  0  0  0  0  0  0  0  0
   -3.3420    1.4559    0.0236 O   0  0  0  0  0  0  0  0  0  0  0  0
   -4.7406    1.7099   -0.1513 C   0  0  0  0  0  0  0  0  0  0  0  0
   -5.0824    3.1046    0.3377 C   0  0  0  0  0  0  0  0  0  0  0  0
   -0.7115    0.1735   -0.5241 C   0  0  0  0  0  0  0  0  0  0  0  0
    0.6476   -0.0335   -0.2147 C   0  0  0  0  0  0  0  0  0  0  0  0
   -1.5991   -0.9046   -0.7395 N   0  0  0  0  0  0  0  0  0  0  0  0
   -1.5562   -2.0174    0.2246 C   0  0  0  0  0  0  0  0  0  0  0  0
   -2.0063   -1.5711    1.6093 C   0  0  0  0  0  0  0  0  0  0  0  0
   -1.6367   -1.2966   -2.1616 C   0  0  0  0  0  0  0  0  0  0  0  0
   -3.0640   -1.6230   -2.5787 C   0  0  0  0  0  0  0  0  0  0  0  0
  1  2  1  0
  2  3  1  0
  3  4  1  0
  4  5  1  0
  5  6  1  0
  6  7  2  0
  7  8  1  0
  8  9  2  0
  9 10  1  0
 10 11  2  0
 10 12  1  0
 12 13  1  0
 13 14  1  0
  9 15  1  0
 15 16  2  0
 15 17  1  0
 17 18  1  0
 18 19  1  0
 17 20  1  0
 20 21  1  0
 16  6  1  0
M  END
>  <target>  (929) 
-3.84

$$$$

     RDKit          3D

  9  8  0  0  0  0  0  0  0  0999 V2000
    4.1536   -0.1227   -0.1725 C   0  0  0  0  0  0  0  0  0  0  0  0
    2.7412   -0.4109   -0.6558 C   0  0  0  0  0  0  0  0  0  0  0  0
    1.6946    0.1454    0.3095 C   0  0  0  0  0  0  0  0  0  0  0  0
    0.2735   -0.1468   -0.1807 C   0  0  0  0  0  0  0  0  0  0  0  0
   -0.7699    0.4125    0.7905 C   0  0  0  0  0  0  0  0  0  0  0  0
   -2.2411    0.1777    0.3914 C   0  0  0  0  0  0  0  0  0  0  0  0
   -2.6080    0.8659   -0.9249 C   0  0  0  0  0  0  0  0  0  0  0  0
   -2.5938   -1.3089    0.3284 C   0  0  0  0  0  0  0  0  0  0  0  0
   -3.0595    0.7481    1.4218 O   0  0  0  0  0  0  0  0  0  0  0  0
  1  2  1  0
  2  3  1  0
  3  4  1  0
  4  5  1  0
  5  6  1  0
  6  7  1  0
  6  8  1  0
  6  9  1  0
M  END
>  <target>  (930) 
-1.72

$$$$

     RDKit          3D

 12 12  0  0  0  0  0  0  0  0999 V2000
    1.4716    2.5324   -0.0928 C   0  0  0  0  0  0  0  0  0  0  0  0
    0.7123    1.2249   -0.0243 C   0  0  0  0  0  0  0  0  0  0  0  0
    1.4171   -0.0049   -0.0004 C   0  0  0  0  0  0  0  0  0  0  0  0
    2.9301   -0.0106    0.0418 C   0  0  0  0  0  0  0  0  0  0  0  0
    0.7037   -1.2292   -0.0460 C   0  0  0  0  0  0  0  0  0  0  0  0
    1.4539   -2.5406   -0.1375 C   0  0  0  0  0  0  0  0  0  0  0  0
   -0.7123   -1.2249    0.0243 C   0  0  0  0  0  0  0  0  0  0  0  0
   -1.4716   -2.5324    0.0928 C   0  0  0  0  0  0  0  0  0  0  0  0
   -1.4171    0.0049    0.0004 C   0  0  0  0  0  0  0  0  0  0  0  0
   -2.9301    0.0106   -0.0418 C   0  0  0  0  0  0  0  0  0  0  0  0
   -0.7037    1.2292    0.0460 C   0  0  0  0  0  0  0  0  0  0  0  0
   -1.4539    2.5406    0.1375 C   0  0  0  0  0  0  0  0  0  0  0  0
  1  2  1  0
  2  3  2  0
  3  4  1  0
  3  5  1  0
  5  6  1  0
  5  7  2  0
  7  8  1  0
  7  9  1  0
  9 10  1  0
  9 11  2  0
 11 12  1  0
 11  2  1  0
M  END
>  <target>  (931) 
-5.23

$$$$

     RDKit          3D

 11 11  0  0  0  0  0  0  0  0999 V2000
   -2.6843   -0.6567    1.1109 C   0  0  0  0  0  0  0  0  0  0  0  0
   -1.9922   -0.1278   -0.1490 C   0  0  0  0  0  0  0  0  0  0  0  0
   -2.5541    1.2409   -0.5447 C   0  0  0  0  0  0  0  0  0  0  0  0
   -0.4817   -0.0802    0.0208 C   0  0  0  0  0  0  0  0  0  0  0  0
    0.1038    0.7234    1.0137 C   0  0  0  0  0  0  0  0  0  0  0  0
    1.4912    0.7740    1.1772 C   0  0  0  0  0  0  0  0  0  0  0  0
    2.3299    0.0140    0.3577 C   0  0  0  0  0  0  0  0  0  0  0  0
    3.8196    0.0945    0.5112 C   0  0  0  0  0  0  0  0  0  0  0  0
    1.7603   -0.7779   -0.6454 C   0  0  0  0  0  0  0  0  0  0  0  0
    0.3720   -0.8242   -0.8038 C   0  0  0  0  0  0  0  0  0  0  0  0
   -0.1662   -1.6092   -1.7860 O   0  0  0  0  0  0  0  0  0  0  0  0
  1  2  1  0
  2  3  1  0
  2  4  1  0
  4  5  2  0
  5  6  1  0
  6  7  2  0
  7  8  1  0
  7  9  1  0
  9 10  2  0
 10 11  1  0
 10  4  1  0
M  END
>  <target>  (932) 
-2.22

$$$$

     RDKit          3D

 10 11  0  0  0  0  0  0  0  0999 V2000
   -2.2422    0.3745    0.0490 C   0  0  0  0  0  0  0  0  0  0  0  0
   -2.0621   -0.9915    0.0547 C   0  0  0  0  0  0  0  0  0  0  0  0
   -0.8353   -1.5616    0.0306 N   0  0  0  0  0  0  0  0  0  0  0  0
    0.2301   -0.7520    0.0001 C   0  0  0  0  0  0  0  0  0  0  0  0
    1.4397   -1.3117   -0.0237 N   0  0  0  0  0  0  0  0  0  0  0  0
    2.4928   -0.4892   -0.0539 C   0  0  0  0  0  0  0  0  0  0  0  0
    2.4427    0.8457   -0.0624 N   0  0  0  0  0  0  0  0  0  0  0  0
    1.1986    1.3697   -0.0375 C   0  0  0  0  0  0  0  0  0  0  0  0
    0.0317    0.6401   -0.0054 C   0  0  0  0  0  0  0  0  0  0  0  0
   -1.1974    1.2233    0.0187 N   0  0  0  0  0  0  0  0  0  0  0  0
  1  2  2  0
  2  3  1  0
  3  4  2  0
  4  5  1  0
  5  6  2  0
  6  7  1  0
  7  8  2  0
  8  9  1  0
  9 10  2  0
  9  4  1  0
 10  1  1  0
M  END
>  <target>  (933) 
0.02

$$$$

     RDKit          3D

 18 18  0  0  0  0  0  0  0  0999 V2000
   -2.1740    3.2056   -1.1456 C   0  0  0  0  0  0  0  0  0  0  0  0
   -2.1942    1.7162   -1.4222 C   0  0  0  0  0  0  0  0  0  0  0  0
   -1.1425    1.1088   -0.6908 O   0  0  0  0  0  0  0  0  0  0  0  0
   -1.0728   -0.5090   -0.6388 P   0  0  0  0  0  0  0  0  0  0  0  0
   -0.8416   -1.4301   -2.3312 S   0  0  0  0  0  0  0  0  0  0  0  0
   -2.4383   -0.8437    0.1685 O   0  0  0  0  0  0  0  0  0  0  0  0
   -2.6622   -2.1786    0.5913 C   0  0  0  0  0  0  0  0  0  0  0  0
   -3.8144   -2.1851    1.5749 C   0  0  0  0  0  0  0  0  0  0  0  0
    0.0386   -0.7643    0.5065 O   0  0  0  0  0  0  0  0  0  0  0  0
    1.3611   -0.4291    0.4435 C   0  0  0  0  0  0  0  0  0  0  0  0
    1.9323    0.3580   -0.5555 C   0  0  0  0  0  0  0  0  0  0  0  0
    3.3016    0.6463   -0.5235 C   0  0  0  0  0  0  0  0  0  0  0  0
    4.0936    0.1446    0.5174 C   0  0  0  0  0  0  0  0  0  0  0  0
    3.5235   -0.6409    1.5257 C   0  0  0  0  0  0  0  0  0  0  0  0
    2.1557   -0.9221    1.4830 C   0  0  0  0  0  0  0  0  0  0  0  0
    5.5297    0.4483    0.5536 N   0  0  0  0  0  0  0  0  0  0  0  0
    6.1965   -0.0303    1.4822 O   0  0  0  0  0  0  0  0  0  0  0  0
    5.9900    1.1665   -0.3452 O   0  0  0  0  0  0  0  0  0  0  0  0
  1  2  1  0
  2  3  1  0
  3  4  1  0
  4  5  2  0
  4  6  1  0
  6  7  1  0
  7  8  1  0
  4  9  1  0
  9 10  1  0
 10 11  2  0
 11 12  1  0
 12 13  2  0
 13 14  1  0
 14 15  2  0
 13 16  1  0
 16 17  1  0
 16 18  2  0
 15 10  1  0
M  CHG  2  16   1  17  -1
M  END
>  <target>  (934) 
-4.66

$$$$

     RDKit          3D

  1  0  0  0  0  0  0  0  0  0999 V2000
    0.0000   -0.0000   -0.0000 C   0  0  0  0  0  0  0  0  0  0  0  0
M  END
>  <target>  (935) 
-0.9

$$$$

     RDKit          3D

  9 10  0  0  0  0  0  0  0  0999 V2000
    2.1709   -0.9705   -0.3997 C   0  0  0  0  0  0  0  0  0  0  0  0
    2.3976    0.4037   -0.2189 C   0  0  0  0  0  0  0  0  0  0  0  0
    1.3396    1.2671    0.0809 C   0  0  0  0  0  0  0  0  0  0  0  0
    0.0658    0.7386    0.1691 C   0  0  0  0  0  0  0  0  0  0  0  0
   -1.1066    1.4489    0.5284 N   0  0  0  0  0  0  0  0  0  0  0  0
   -2.1776    0.4999    0.1742 C   0  0  0  0  0  0  0  0  0  0  0  0
   -1.5934   -0.9234    0.2412 C   0  0  0  0  0  0  0  0  0  0  0  0
   -0.1520   -0.6299    0.0096 C   0  0  0  0  0  0  0  0  0  0  0  0
    0.8850   -1.5006   -0.2762 C   0  0  0  0  0  0  0  0  0  0  0  0
  1  2  2  0
  2  3  1  0
  3  4  2  0
  4  5  1  0
  5  6  1  0
  6  7  1  0
  7  8  1  0
  8  9  2  0
  8  4  1  0
  9  1  1  0
M  END
>  <target>  (936) 
-1.04

$$$$

     RDKit          3D

 13 14  0  0  0  0  0  0  0  0999 V2000
    3.3131    1.3176   -0.6997 O   0  0  0  0  0  0  0  0  0  0  0  0
    2.4627    1.2295    0.1969 N   0  0  0  0  0  0  0  0  0  0  0  0
    2.3764    1.9763    1.1810 O   0  0  0  0  0  0  0  0  0  0  0  0
    1.5109    0.1372    0.0971 C   0  0  0  0  0  0  0  0  0  0  0  0
    2.0456   -1.1592    0.0707 C   0  0  0  0  0  0  0  0  0  0  0  0
    1.1829   -2.2432   -0.0154 C   0  0  0  0  0  0  0  0  0  0  0  0
   -0.1948   -2.0274   -0.0778 C   0  0  0  0  0  0  0  0  0  0  0  0
   -0.7377   -0.7287   -0.0612 C   0  0  0  0  0  0  0  0  0  0  0  0
   -2.1286   -0.5483   -0.1358 C   0  0  0  0  0  0  0  0  0  0  0  0
   -2.6911    0.7272   -0.1310 C   0  0  0  0  0  0  0  0  0  0  0  0
   -1.8698    1.8434   -0.0532 C   0  0  0  0  0  0  0  0  0  0  0  0
   -0.4848    1.6843    0.0226 C   0  0  0  0  0  0  0  0  0  0  0  0
    0.1167    0.3981    0.0261 C   0  0  0  0  0  0  0  0  0  0  0  0
  1  2  1  0
  2  3  2  0
  2  4  1  0
  4  5  2  0
  5  6  1  0
  6  7  2  0
  7  8  1  0
  8  9  2  0
  9 10  1  0
 10 11  2  0
 11 12  1  0
 12 13  2  0
 13  4  1  0
 13  8  1  0
M  CHG  2   1  -1   2   1
M  END
>  <target>  (937) 
-3.54

$$$$

     RDKit          3D

  7  6  0  0  0  0  0  0  0  0999 V2000
    1.7146   -0.9204   -1.2104 C   0  0  0  0  0  0  0  0  0  0  0  0
    1.2185    0.4396   -0.7358 C   0  0  0  0  0  0  0  0  0  0  0  0
    0.1394    0.3262    0.3507 C   0  0  0  0  0  0  0  0  0  0  0  0
   -0.1827    1.6977    0.9385 C   0  0  0  0  0  0  0  0  0  0  0  0
   -1.1508   -0.2827   -0.1917 C   0  0  0  0  0  0  0  0  0  0  0  0
   -1.5555   -0.0594   -1.3325 O   0  0  0  0  0  0  0  0  0  0  0  0
   -1.9415   -1.1486    0.7555 C   0  0  0  0  0  0  0  0  0  0  0  0
  1  2  1  0
  2  3  1  0
  3  4  1  0
  3  5  1  0
  5  6  2  0
  5  7  1  0
M  END
>  <target>  (938) 
-0.67

$$$$

     RDKit          3D

 11 12  0  0  0  0  0  0  0  0999 V2000
   -0.8862    2.2262   -0.5828 N   0  0  0  0  0  0  0  0  0  0  0  0
   -0.0730    1.1343   -0.3213 C   0  0  0  0  0  0  0  0  0  0  0  0
    1.2567    1.3000   -0.3541 N   0  0  0  0  0  0  0  0  0  0  0  0
    2.0275    0.2352   -0.0823 C   0  0  0  0  0  0  0  0  0  0  0  0
    3.3741    0.4347   -0.1160 O   0  0  0  0  0  0  0  0  0  0  0  0
    1.6731   -1.0107    0.2329 N   0  0  0  0  0  0  0  0  0  0  0  0
    0.3365   -1.1560    0.2503 C   0  0  0  0  0  0  0  0  0  0  0  0
   -0.3340   -2.3170    0.5281 N   0  0  0  0  0  0  0  0  0  0  0  0
   -1.6074   -2.0097    0.4120 C   0  0  0  0  0  0  0  0  0  0  0  0
   -1.7837   -0.6940    0.0792 N   0  0  0  0  0  0  0  0  0  0  0  0
   -0.5454   -0.1247   -0.0170 C   0  0  0  0  0  0  0  0  0  0  0  0
  1  2  1  0
  2  3  2  0
  3  4  1  0
  4  5  1  0
  4  6  2  0
  6  7  1  0
  7  8  1  0
  8  9  2  0
  9 10  1  0
 10 11  1  0
 11  2  1  0
 11  7  2  0
M  END
>  <target>  (939) 
-3.4010000000000002

$$$$

     RDKit          3D

 35 39  0  0  0  0  0  0  0  0999 V2000
   -1.0026   -1.5702   -2.2970 O   0  0  0  0  0  0  0  0  0  0  0  0
   -0.0625   -0.5023   -2.4478 C   0  0  0  0  0  0  0  0  0  0  0  0
   -0.7532    0.8471   -2.1964 C   0  0  0  0  0  0  0  0  0  0  0  0
   -1.0414    1.2340   -0.7176 C   0  0  0  0  0  0  0  0  0  0  0  0
   -1.5783    2.6725   -0.6825 C   0  0  0  0  0  0  0  0  0  0  0  0
   -2.8031    3.0116   -1.2813 C   0  0  0  0  0  0  0  0  0  0  0  0
   -3.2814    4.3222   -1.2299 C   0  0  0  0  0  0  0  0  0  0  0  0
   -2.5469    5.3084   -0.5755 C   0  0  0  0  0  0  0  0  0  0  0  0
   -1.3352    4.9849    0.0311 C   0  0  0  0  0  0  0  0  0  0  0  0
   -0.8534    3.6758   -0.0205 C   0  0  0  0  0  0  0  0  0  0  0  0
   -1.9097    0.3416    0.1704 C   0  0  0  0  0  0  0  0  0  0  0  0
   -2.9303   -0.4465   -0.2137 C   0  0  0  0  0  0  0  0  0  0  0  0
   -3.3051   -0.6145   -1.5280 O   0  0  0  0  0  0  0  0  0  0  0  0
   -3.7546   -1.1662    0.7545 C   0  0  0  0  0  0  0  0  0  0  0  0
   -4.8515   -1.9595    0.3958 C   0  0  0  0  0  0  0  0  0  0  0  0
   -5.6039   -2.6190    1.3741 C   0  0  0  0  0  0  0  0  0  0  0  0
   -5.2676   -2.4912    2.7217 C   0  0  0  0  0  0  0  0  0  0  0  0
   -4.1797   -1.7047    3.0911 C   0  0  0  0  0  0  0  0  0  0  0  0
   -3.4420   -1.0550    2.1019 C   0  0  0  0  0  0  0  0  0  0  0  0
   -2.3545   -0.2786    2.5230 O   0  0  0  0  0  0  0  0  0  0  0  0
   -1.5567    0.4138    1.6228 C   0  0  0  0  0  0  0  0  0  0  0  0
   -0.5814    1.0402    2.0272 O   0  0  0  0  0  0  0  0  0  0  0  0
    1.1898   -0.7389   -1.6335 C   0  0  0  0  0  0  0  0  0  0  0  0
    1.1774   -1.4952   -0.4537 C   0  0  0  0  0  0  0  0  0  0  0  0
    2.3462   -1.6735    0.2940 C   0  0  0  0  0  0  0  0  0  0  0  0
    3.5616   -1.1032   -0.1120 C   0  0  0  0  0  0  0  0  0  0  0  0
    3.5675   -0.3453   -1.2927 C   0  0  0  0  0  0  0  0  0  0  0  0
    2.4000   -0.1625   -2.0413 C   0  0  0  0  0  0  0  0  0  0  0  0
    4.7898   -1.2884    0.6781 C   0  0  0  0  0  0  0  0  0  0  0  0
    4.8210   -0.9862    2.0507 C   0  0  0  0  0  0  0  0  0  0  0  0
    5.9872   -1.1607    2.8027 C   0  0  0  0  0  0  0  0  0  0  0  0
    7.1391   -1.6421    2.1874 C   0  0  0  0  0  0  0  0  0  0  0  0
    8.7168   -1.8799    3.2006 Br  0  0  0  0  0  0  0  0  0  0  0  0
    7.1353   -1.9495    0.8299 C   0  0  0  0  0  0  0  0  0  0  0  0
    5.9668   -1.7728    0.0820 C   0  0  0  0  0  0  0  0  0  0  0  0
  1  2  1  0
  2  3  1  0
  3  4  1  0
  4  5  1  0
  5  6  2  0
  6  7  1  0
  7  8  2  0
  8  9  1  0
  9 10  2  0
  4 11  1  0
 11 12  2  0
 12 13  1  0
 12 14  1  0
 14 15  2  0
 15 16  1  0
 16 17  2  0
 17 18  1  0
 18 19  2  0
 19 20  1  0
 20 21  1  0
 21 22  2  0
  2 23  1  0
 23 24  2  0
 24 25  1  0
 25 26  2  0
 26 27  1  0
 27 28  2  0
 26 29  1  0
 29 30  2  0
 30 31  1  0
 31 32  2  0
 32 33  1  0
 32 34  1  0
 34 35  2  0
 10  5  1  0
 19 14  1  0
 21 11  1  0
 28 23  1  0
 35 29  1  0
M  END
>  <target>  (940) 
-4.445

$$$$

     RDKit          3D

  4  3  0  0  0  0  0  0  0  0999 V2000
   -0.6536    0.0005    0.0100 C   0  0  0  0  0  0  0  0  0  0  0  0
    0.8336   -0.0021   -0.0202 N   0  0  0  0  0  0  0  0  0  0  0  0
    1.3932    1.0803   -0.2315 O   0  0  0  0  0  0  0  0  0  0  0  0
    1.3980   -1.0826    0.1881 O   0  0  0  0  0  0  0  0  0  0  0  0
  1  2  1  0
  2  3  1  0
  2  4  2  0
M  CHG  2   2   1   3  -1
M  END
>  <target>  (941) 
0.26

$$$$

     RDKit          3D

 16 15  0  0  0  0  0  0  0  0999 V2000
   -1.2928   -0.7694   -2.6744 C   0  0  0  0  0  0  0  0  0  0  0  0
   -1.6082    0.1594   -1.4986 C   0  0  0  0  0  0  0  0  0  0  0  0
   -1.5898    1.6318   -1.9192 C   0  0  0  0  0  0  0  0  0  0  0  0
   -0.7582   -0.1085   -0.3134 N   0  0  0  0  0  0  0  0  0  0  0  0
   -1.4410   -0.5840    0.9203 C   0  0  0  0  0  0  0  0  0  0  0  0
   -2.4098    0.4645    1.4733 C   0  0  0  0  0  0  0  0  0  0  0  0
   -2.1298   -1.9348    0.7069 C   0  0  0  0  0  0  0  0  0  0  0  0
    0.6221    0.1063   -0.4338 C   0  0  0  0  0  0  0  0  0  0  0  0
    1.1613    0.4941   -1.4639 O   0  0  0  0  0  0  0  0  0  0  0  0
    1.6207   -0.1977    0.9818 S   0  0  0  0  0  0  0  0  0  0  0  0
    3.2521    0.1691    0.2700 C   0  0  0  0  0  0  0  0  0  0  0  0
    4.3246   -0.0480    1.3062 C   0  0  0  0  0  0  0  0  0  0  0  0
    4.8694   -1.7083    1.3942 Cl  0  0  0  0  0  0  0  0  0  0  0  0
    4.8751    0.9101    2.0747 C   0  0  0  0  0  0  0  0  0  0  0  0
    6.1337    0.5910    3.2271 Cl  0  0  0  0  0  0  0  0  0  0  0  0
    4.3571    2.5650    1.9965 Cl  0  0  0  0  0  0  0  0  0  0  0  0
  1  2  1  0
  2  3  1  0
  2  4  1  0
  4  5  1  0
  5  6  1  0
  5  7  1  0
  4  8  1  0
  8  9  2  0
  8 10  1  0
 10 11  1  0
 11 12  1  0
 12 13  1  0
 12 14  2  3
 14 15  1  0
 14 16  1  0
M  END
>  <target>  (942) 
-4.88

$$$$

     RDKit          3D

  6  5  0  0  0  0  0  0  0  0999 V2000
    2.8282    0.6081   -0.1714 C   0  0  0  0  0  0  0  0  0  0  0  0
    1.9169   -0.3728   -0.1684 C   0  0  0  0  0  0  0  0  0  0  0  0
    0.5688   -0.2689    0.4890 C   0  0  0  0  0  0  0  0  0  0  0  0
   -0.5662   -0.4076   -0.5307 C   0  0  0  0  0  0  0  0  0  0  0  0
   -1.9141   -0.3479    0.1326 C   0  0  0  0  0  0  0  0  0  0  0  0
   -2.8328    0.5934   -0.1176 C   0  0  0  0  0  0  0  0  0  0  0  0
  1  2  2  0
  2  3  1  0
  3  4  1  0
  4  5  1  0
  5  6  2  0
M  END
>  <target>  (943) 
-2.68

$$$$

     RDKit          3D

  9 10  0  0  0  0  0  0  0  0999 V2000
   -2.0955   -0.7121   -0.0626 C   0  0  0  0  0  0  0  0  0  0  0  0
   -2.0971    0.6731    0.0888 C   0  0  0  0  0  0  0  0  0  0  0  0
   -0.9001    1.3926    0.1587 C   0  0  0  0  0  0  0  0  0  0  0  0
    0.2955    0.6697    0.0710 C   0  0  0  0  0  0  0  0  0  0  0  0
    1.6019    1.1025    0.1088 N   0  0  0  0  0  0  0  0  0  0  0  0
    2.4572    0.0395   -0.0136 C   0  0  0  0  0  0  0  0  0  0  0  0
    1.6961   -1.1010   -0.1326 C   0  0  0  0  0  0  0  0  0  0  0  0
    0.3276   -0.7169   -0.0807 C   0  0  0  0  0  0  0  0  0  0  0  0
   -0.8907   -1.4196   -0.1486 C   0  0  0  0  0  0  0  0  0  0  0  0
  1  2  2  0
  2  3  1  0
  3  4  2  0
  4  5  1  0
  5  6  1  0
  6  7  2  0
  7  8  1  0
  8  9  2  0
  8  4  1  0
  9  1  1  0
M  END
>  <target>  (944) 
-1.52

$$$$

     RDKit          3D

 21 24  0  0  0  0  0  0  0  0999 V2000
    3.1891    1.7105   -0.6079 C   0  0  0  0  0  0  0  0  0  0  0  0
    2.7066    0.5729    0.2926 C   0  0  0  0  0  0  0  0  0  0  0  0
    1.8194    1.0812    1.4376 C   0  0  0  0  0  0  0  0  0  0  0  0
    0.3981    1.4048    0.9902 C   0  0  0  0  0  0  0  0  0  0  0  0
   -0.2835    0.1899    0.3300 C   0  0  0  0  0  0  0  0  0  0  0  0
    0.5610   -0.2890   -0.8793 C   0  0  0  0  0  0  0  0  0  0  0  0
   -0.0830   -1.5155   -1.5428 C   0  0  0  0  0  0  0  0  0  0  0  0
   -1.5116   -1.2273   -1.9801 C   0  0  0  0  0  0  0  0  0  0  0  0
   -2.3504   -0.7462   -0.8213 C   0  0  0  0  0  0  0  0  0  0  0  0
   -3.5185   -1.3535   -0.5479 C   0  0  0  0  0  0  0  0  0  0  0  0
   -4.4279   -0.8506    0.5058 C   0  0  0  0  0  0  0  0  0  0  0  0
   -5.4490   -1.4779    0.7727 O   0  0  0  0  0  0  0  0  0  0  0  0
   -4.0968    0.4671    1.1521 C   0  0  0  0  0  0  0  0  0  0  0  0
   -2.5902    0.6093    1.3080 C   0  0  0  0  0  0  0  0  0  0  0  0
   -1.8011    0.4450   -0.0268 C   0  0  0  0  0  0  0  0  0  0  0  0
   -1.9939    1.7203   -0.8787 C   0  0  0  0  0  0  0  0  0  0  0  0
    2.0412   -0.5581   -0.5260 C   0  0  0  0  0  0  0  0  0  0  0  0
    2.3139   -1.8220    0.3034 C   0  0  0  0  0  0  0  0  0  0  0  0
    3.7571   -1.6647    0.7670 C   0  0  0  0  0  0  0  0  0  0  0  0
    3.8874   -0.1701    0.9038 C   0  0  0  0  0  0  0  0  0  0  0  0
    4.8373    0.3759    1.4512 O   0  0  0  0  0  0  0  0  0  0  0  0
  1  2  1  0
  2  3  1  0
  3  4  1  0
  4  5  1  0
  5  6  1  0
  6  7  1  0
  7  8  1  0
  8  9  1  0
  9 10  2  0
 10 11  1  0
 11 12  2  0
 11 13  1  0
 13 14  1  0
 14 15  1  0
 15 16  1  0
  6 17  1  0
 17 18  1  0
 18 19  1  0
 19 20  1  0
 20 21  2  0
 15  5  1  0
 15  9  1  0
 17  2  1  0
 20  2  1  0
M  END
>  <target>  (945) 
-3.69

$$$$

     RDKit          3D

  6  5  0  0  0  0  0  0  0  0999 V2000
    2.8086    0.2876    0.0860 C   0  0  0  0  0  0  0  0  0  0  0  0
    1.5562   -0.5620   -0.0606 C   0  0  0  0  0  0  0  0  0  0  0  0
    0.2909    0.2547    0.2032 C   0  0  0  0  0  0  0  0  0  0  0  0
   -0.9657   -0.6053    0.0549 C   0  0  0  0  0  0  0  0  0  0  0  0
   -2.2084    0.1931    0.3266 C   0  0  0  0  0  0  0  0  0  0  0  0
   -3.1743    0.4087   -0.5752 C   0  0  0  0  0  0  0  0  0  0  0  0
  1  2  1  0
  2  3  1  0
  3  4  1  0
  4  5  1  0
  5  6  2  0
M  END
>  <target>  (946) 
-3.23

$$$$

     RDKit          3D

 23 24  0  0  0  0  0  0  0  0999 V2000
   -3.2413   -1.5904   -0.2955 C   0  0  0  0  0  0  0  0  0  0  0  0
   -3.2876   -0.1534    0.1502 C   0  0  0  0  0  0  0  0  0  0  0  0
   -4.5697    0.4002    0.3333 C   0  0  0  0  0  0  0  0  0  0  0  0
   -4.7370    1.7475    0.6307 C   0  0  0  0  0  0  0  0  0  0  0  0
   -3.6235    2.5691    0.7471 C   0  0  0  0  0  0  0  0  0  0  0  0
   -2.3286    2.0469    0.6045 C   0  0  0  0  0  0  0  0  0  0  0  0
   -1.1701    2.9969    0.7730 C   0  0  0  0  0  0  0  0  0  0  0  0
   -2.1520    0.6637    0.3423 C   0  0  0  0  0  0  0  0  0  0  0  0
   -0.8180    0.1963    0.2269 N   0  0  0  0  0  0  0  0  0  0  0  0
   -0.3311   -1.0243    0.6537 C   0  0  0  0  0  0  0  0  0  0  0  0
   -0.9386   -1.8704    1.3024 O   0  0  0  0  0  0  0  0  0  0  0  0
    1.1151   -1.2781    0.3780 C   0  0  0  0  0  0  0  0  0  0  0  0
    1.7879   -0.6152   -0.6571 C   0  0  0  0  0  0  0  0  0  0  0  0
    3.1588   -0.8432   -0.8767 C   0  0  0  0  0  0  0  0  0  0  0  0
    3.8585   -1.7572   -0.0862 C   0  0  0  0  0  0  0  0  0  0  0  0
    5.5381   -2.1078   -0.2715 Cl  0  0  0  0  0  0  0  0  0  0  0  0
    3.1797   -2.4414    0.9269 C   0  0  0  0  0  0  0  0  0  0  0  0
    1.8225   -2.2081    1.1519 C   0  0  0  0  0  0  0  0  0  0  0  0
    1.2483   -2.9334    2.1615 O   0  0  0  0  0  0  0  0  0  0  0  0
    3.9447    0.0558   -2.1769 S   0  0  0  0  0  0  0  0  0  0  0  0
    5.1181    0.9447   -1.3751 N   0  0  0  0  0  0  0  0  0  0  0  0
    4.6175   -0.8627   -3.0606 O   0  0  0  0  0  0  0  0  0  0  0  0
    3.0129    1.0470   -2.6687 O   0  0  0  0  0  0  0  0  0  0  0  0
  1  2  1  0
  2  3  2  0
  3  4  1  0
  4  5  2  0
  5  6  1  0
  6  7  1  0
  6  8  2  0
  8  9  1  0
  9 10  1  0
 10 11  2  0
 10 12  1  0
 12 13  2  0
 13 14  1  0
 14 15  2  0
 15 16  1  0
 15 17  1  0
 17 18  2  0
 18 19  1  0
 14 20  1  0
 20 21  1  0
 20 22  2  0
 20 23  2  0
  8  2  1  0
 18 12  1  0
M  END
>  <target>  (947) 
-3.79

$$$$

     RDKit          3D

  8  8  0  0  0  0  0  0  0  0999 V2000
    2.9876    0.3621   -0.2340 C   0  0  0  0  0  0  0  0  0  0  0  0
    1.8943   -0.6311    0.1331 C   0  0  0  0  0  0  0  0  0  0  0  0
    0.5030   -0.2444   -0.4020 C   0  0  0  0  0  0  0  0  0  0  0  0
   -0.4942   -1.3821   -0.1214 C   0  0  0  0  0  0  0  0  0  0  0  0
   -1.9025   -1.0402   -0.6002 C   0  0  0  0  0  0  0  0  0  0  0  0
   -2.3954    0.2706    0.0016 C   0  0  0  0  0  0  0  0  0  0  0  0
   -1.4215    1.4100   -0.2752 C   0  0  0  0  0  0  0  0  0  0  0  0
   -0.0075    1.0764    0.1973 C   0  0  0  0  0  0  0  0  0  0  0  0
  1  2  1  0
  2  3  1  0
  3  4  1  0
  4  5  1  0
  5  6  1  0
  6  7  1  0
  7  8  1  0
  8  3  1  0
M  END
>  <target>  (948) 
-4.25

$$$$

     RDKit          3D

 10  9  0  0  0  0  0  0  0  0999 V2000
   -4.2248    0.9725   -0.0820 C   0  0  0  0  0  0  0  0  0  0  0  0
   -3.8081   -0.4458    0.2754 C   0  0  0  0  0  0  0  0  0  0  0  0
   -2.4343   -0.8360   -0.2740 C   0  0  0  0  0  0  0  0  0  0  0  0
   -1.2852   -0.0335    0.3404 C   0  0  0  0  0  0  0  0  0  0  0  0
    0.0708   -0.5342   -0.1623 C   0  0  0  0  0  0  0  0  0  0  0  0
    1.2210    0.2681    0.4474 C   0  0  0  0  0  0  0  0  0  0  0  0
    2.5740   -0.2317   -0.0537 C   0  0  0  0  0  0  0  0  0  0  0  0
    3.7369    0.5472    0.5354 C   0  0  0  0  0  0  0  0  0  0  0  0
    3.5857    1.4757    1.3279 O   0  0  0  0  0  0  0  0  0  0  0  0
    5.1126    0.1198    0.0938 C   0  0  0  0  0  0  0  0  0  0  0  0
  1  2  1  0
  2  3  1  0
  3  4  1  0
  4  5  1  0
  5  6  1  0
  6  7  1  0
  7  8  1  0
  8  9  2  0
  8 10  1  0
M  END
>  <target>  (949) 
-2.58

$$$$

     RDKit          3D

 22 24  0  0  0  0  0  0  0  0999 V2000
    7.3171    1.5455   -0.6379 C   0  0  0  0  0  0  0  0  0  0  0  0
    6.3669    1.3393    0.4087 O   0  0  0  0  0  0  0  0  0  0  0  0
    5.1381    0.9548   -0.0222 C   0  0  0  0  0  0  0  0  0  0  0  0
    4.8294    0.7886   -1.1962 O   0  0  0  0  0  0  0  0  0  0  0  0
    4.3175    0.7900    1.0524 N   0  0  0  0  0  0  0  0  0  0  0  0
    3.0089    0.4098    0.9468 C   0  0  0  0  0  0  0  0  0  0  0  0
    2.1952    0.2549    1.9652 N   0  0  0  0  0  0  0  0  0  0  0  0
    0.9944   -0.1258    1.4176 C   0  0  0  0  0  0  0  0  0  0  0  0
   -0.2209   -0.4316    2.0477 C   0  0  0  0  0  0  0  0  0  0  0  0
   -1.3196   -0.7955    1.2553 C   0  0  0  0  0  0  0  0  0  0  0  0
   -1.2107   -0.8417   -0.1425 C   0  0  0  0  0  0  0  0  0  0  0  0
    0.0062   -0.5623   -0.7864 C   0  0  0  0  0  0  0  0  0  0  0  0
    1.0792   -0.2008    0.0315 C   0  0  0  0  0  0  0  0  0  0  0  0
    2.3773    0.1408   -0.2416 N   0  0  0  0  0  0  0  0  0  0  0  0
   -2.3675   -1.2315   -0.9890 C   0  0  0  0  0  0  0  0  0  0  0  0
   -2.1746   -1.9205   -1.9874 O   0  0  0  0  0  0  0  0  0  0  0  0
   -3.7502   -0.8046   -0.6556 C   0  0  0  0  0  0  0  0  0  0  0  0
   -4.8076   -1.6657   -0.9714 C   0  0  0  0  0  0  0  0  0  0  0  0
   -6.1211   -1.2949   -0.6816 C   0  0  0  0  0  0  0  0  0  0  0  0
   -6.3818   -0.0598   -0.0885 C   0  0  0  0  0  0  0  0  0  0  0  0
   -5.3327    0.8105    0.2083 C   0  0  0  0  0  0  0  0  0  0  0  0
   -4.0162    0.4437   -0.0792 C   0  0  0  0  0  0  0  0  0  0  0  0
  1  2  1  0
  2  3  1  0
  3  4  2  0
  3  5  1  0
  5  6  1  0
  6  7  2  0
  7  8  1  0
  8  9  2  0
  9 10  1  0
 10 11  2  0
 11 12  1  0
 12 13  2  0
 13 14  1  0
 11 15  1  0
 15 16  2  0
 15 17  1  0
 17 18  2  0
 18 19  1  0
 19 20  2  0
 20 21  1  0
 21 22  2  0
 13  8  1  0
 14  6  1  0
 22 17  1  0
M  END
>  <target>  (950) 
-3.88

$$$$

     RDKit          3D

 14 14  0  0  0  0  0  0  0  0999 V2000
    3.8891   -0.4264    1.3515 C   0  0  0  0  0  0  0  0  0  0  0  0
    2.9555   -0.3634    0.1487 C   0  0  0  0  0  0  0  0  0  0  0  0
    3.4702    0.6363   -0.8808 C   0  0  0  0  0  0  0  0  0  0  0  0
    1.6679    0.0630    0.6339 O   0  0  0  0  0  0  0  0  0  0  0  0
    0.5925   -0.2892   -0.1215 C   0  0  0  0  0  0  0  0  0  0  0  0
    0.6626   -0.9302   -1.1579 O   0  0  0  0  0  0  0  0  0  0  0  0
   -0.5253    0.2011    0.4916 N   0  0  0  0  0  0  0  0  0  0  0  0
   -1.8661    0.0920    0.0858 C   0  0  0  0  0  0  0  0  0  0  0  0
   -2.2745   -0.5737   -1.0730 C   0  0  0  0  0  0  0  0  0  0  0  0
   -3.6297   -0.6413   -1.4137 C   0  0  0  0  0  0  0  0  0  0  0  0
   -4.5877   -0.0435   -0.5979 C   0  0  0  0  0  0  0  0  0  0  0  0
   -4.1845    0.6203    0.5568 C   0  0  0  0  0  0  0  0  0  0  0  0
   -5.3623    1.3616    1.5701 Cl  0  0  0  0  0  0  0  0  0  0  0  0
   -2.8337    0.6908    0.9015 C   0  0  0  0  0  0  0  0  0  0  0  0
  1  2  1  0
  2  3  1  0
  2  4  1  0
  4  5  1  0
  5  6  2  0
  5  7  1  0
  7  8  1  0
  8  9  2  0
  9 10  1  0
 10 11  2  0
 11 12  1  0
 12 13  1  0
 12 14  2  0
 14  8  1  0
M  END
>  <target>  (951) 
-3.38

$$$$

     RDKit          3D

 20 22  0  0  0  0  0  0  0  0999 V2000
    0.8368    2.9589    1.4665 C   0  0  0  0  0  0  0  0  0  0  0  0
    1.4622    2.0324    0.4240 C   0  0  0  0  0  0  0  0  0  0  0  0
    0.7148    0.7622    0.3180 N   0  0  0  0  0  0  0  0  0  0  0  0
   -0.5621    0.8834   -0.2854 C   0  0  0  0  0  0  0  0  0  0  0  0
   -0.8406    2.0193   -0.9812 N   0  0  0  0  0  0  0  0  0  0  0  0
   -2.0551    2.1566   -1.5377 C   0  0  0  0  0  0  0  0  0  0  0  0
   -2.2890    3.6220   -2.3945 Cl  0  0  0  0  0  0  0  0  0  0  0  0
   -3.0578    1.2220   -1.4443 C   0  0  0  0  0  0  0  0  0  0  0  0
   -2.7872    0.0658   -0.7226 C   0  0  0  0  0  0  0  0  0  0  0  0
   -1.5270   -0.1380   -0.1274 C   0  0  0  0  0  0  0  0  0  0  0  0
   -1.3139   -1.3137    0.6649 N   0  0  0  0  0  0  0  0  0  0  0  0
   -2.4752   -1.9235    1.3101 C   0  0  0  0  0  0  0  0  0  0  0  0
   -0.0985   -1.9889    0.8315 C   0  0  0  0  0  0  0  0  0  0  0  0
   -0.0067   -2.9956    1.5422 O   0  0  0  0  0  0  0  0  0  0  0  0
    1.1145   -1.6254    0.0769 C   0  0  0  0  0  0  0  0  0  0  0  0
    1.9398   -2.6734   -0.3664 C   0  0  0  0  0  0  0  0  0  0  0  0
    3.1448   -2.3929   -0.9939 C   0  0  0  0  0  0  0  0  0  0  0  0
    3.4935   -1.0678   -1.1381 C   0  0  0  0  0  0  0  0  0  0  0  0
    2.7258   -0.0424   -0.7089 N   0  0  0  0  0  0  0  0  0  0  0  0
    1.5318   -0.3115   -0.1064 C   0  0  0  0  0  0  0  0  0  0  0  0
  1  2  1  0
  2  3  1  0
  3  4  1  0
  4  5  2  0
  5  6  1  0
  6  7  1  0
  6  8  2  0
  8  9  1  0
  9 10  2  0
 10 11  1  0
 11 12  1  0
 11 13  1  0
 13 14  2  0
 13 15  1  0
 15 16  2  0
 16 17  1  0
 17 18  2  0
 18 19  1  0
 19 20  2  0
 10  4  1  0
 20  3  1  0
 20 15  1  0
M  END
>  <target>  (952) 
-4.114

$$$$

     RDKit          3D

 15 16  0  0  0  0  0  0  0  0999 V2000
    4.5822   -0.2175   -0.3907 C   0  0  0  0  0  0  0  0  0  0  0  0
    3.2957   -0.8376   -0.2306 N   0  0  0  0  0  0  0  0  0  0  0  0
    2.1973   -0.1311    0.1777 C   0  0  0  0  0  0  0  0  0  0  0  0
    2.1763    1.0799    0.3471 O   0  0  0  0  0  0  0  0  0  0  0  0
    1.1450   -1.0095    0.3752 O   0  0  0  0  0  0  0  0  0  0  0  0
   -0.0430   -0.3853    0.7860 C   0  0  0  0  0  0  0  0  0  0  0  0
   -0.1881   -0.0757    2.1404 C   0  0  0  0  0  0  0  0  0  0  0  0
   -1.3731    0.5005    2.5831 C   0  0  0  0  0  0  0  0  0  0  0  0
   -2.4078    0.7484    1.6779 C   0  0  0  0  0  0  0  0  0  0  0  0
   -2.2774    0.4202    0.3163 C   0  0  0  0  0  0  0  0  0  0  0  0
   -3.3251    0.6609   -0.5880 C   0  0  0  0  0  0  0  0  0  0  0  0
   -3.1982    0.3287   -1.9374 C   0  0  0  0  0  0  0  0  0  0  0  0
   -2.0221   -0.2493   -2.4021 C   0  0  0  0  0  0  0  0  0  0  0  0
   -0.9705   -0.4942   -1.5176 C   0  0  0  0  0  0  0  0  0  0  0  0
   -1.0764   -0.1639   -0.1497 C   0  0  0  0  0  0  0  0  0  0  0  0
  1  2  1  0
  2  3  1  0
  3  4  2  0
  3  5  1  0
  5  6  1  0
  6  7  2  0
  7  8  1  0
  8  9  2  0
  9 10  1  0
 10 11  2  0
 11 12  1  0
 12 13  2  0
 13 14  1  0
 14 15  2  0
 15  6  1  0
 15 10  1  0
M  END
>  <target>  (953) 
-3.2239999999999998

$$$$

     RDKit          3D

  2  1  0  0  0  0  0  0  0  0999 V2000
   -0.5999   -0.1794    0.0145 C   0  0  0  0  0  0  0  0  0  0  0  0
    0.5999   -0.1951   -0.0145 C   0  0  0  0  0  0  0  0  0  0  0  0
  1  2  3  0
M  END
>  <target>  (954) 
0.29

$$$$

     RDKit          3D

  8  8  0  0  0  0  0  0  0  0999 V2000
   -2.4691   -0.8593   -0.0125 C   0  0  0  0  0  0  0  0  0  0  0  0
   -1.2093   -0.0542   -0.0301 C   0  0  0  0  0  0  0  0  0  0  0  0
   -1.2435    1.3344    0.0222 C   0  0  0  0  0  0  0  0  0  0  0  0
   -0.1447    2.1202    0.0476 N   0  0  0  0  0  0  0  0  0  0  0  0
    1.0507    1.4910    0.0258 C   0  0  0  0  0  0  0  0  0  0  0  0
    1.2055    0.1105   -0.0263 C   0  0  0  0  0  0  0  0  0  0  0  0
    2.5630   -0.5159   -0.0046 C   0  0  0  0  0  0  0  0  0  0  0  0
    0.0456   -0.6681   -0.0363 C   0  0  0  0  0  0  0  0  0  0  0  0
  1  2  1  0
  2  3  2  0
  3  4  1  0
  4  5  2  0
  5  6  1  0
  6  7  1  0
  6  8  2  0
  8  2  1  0
M  END
>  <target>  (955) 
0.38

$$$$

     RDKit          3D

  6  6  0  0  0  0  0  0  0  0999 V2000
   -1.4030   -0.5187   -0.0113 C   0  0  0  0  0  0  0  0  0  0  0  0
   -0.1940   -1.4102   -0.0784 C   0  0  0  0  0  0  0  0  0  0  0  0
    1.0657   -0.9444   -0.0682 C   0  0  0  0  0  0  0  0  0  0  0  0
    1.4030    0.5187    0.0113 C   0  0  0  0  0  0  0  0  0  0  0  0
    0.1940    1.4102    0.0784 C   0  0  0  0  0  0  0  0  0  0  0  0
   -1.0657    0.9444    0.0682 C   0  0  0  0  0  0  0  0  0  0  0  0
  1  2  1  0
  2  3  2  0
  3  4  1  0
  4  5  1  0
  5  6  2  0
  6  1  1  0
M  END
>  <target>  (956) 
-2.06

$$$$

     RDKit          3D

 19 18  0  0  0  0  0  0  0  0999 V2000
    2.2648    1.7647    3.5535 C   0  0  0  0  0  0  0  0  0  0  0  0
    3.1820    1.6125    2.3546 C   0  0  0  0  0  0  0  0  0  0  0  0
    2.4145    1.2731    1.1879 O   0  0  0  0  0  0  0  0  0  0  0  0
    2.1575   -0.0498    0.9966 C   0  0  0  0  0  0  0  0  0  0  0  0
    2.5687   -0.9262    1.7502 O   0  0  0  0  0  0  0  0  0  0  0  0
    1.4197   -0.3087   -0.1618 N   0  0  0  0  0  0  0  0  0  0  0  0
    1.4470   -1.6848   -0.6182 C   0  0  0  0  0  0  0  0  0  0  0  0
    0.9886    0.6403   -1.0908 C   0  0  0  0  0  0  0  0  0  0  0  0
    1.0111    0.4151   -2.3048 O   0  0  0  0  0  0  0  0  0  0  0  0
    0.4750    1.9695   -0.5462 C   0  0  0  0  0  0  0  0  0  0  0  0
   -1.0688    2.4560   -1.3734 S   0  0  0  0  0  0  0  0  0  0  0  0
   -2.3521    0.8339   -0.9645 P   0  0  0  0  0  0  0  0  0  0  0  0
   -4.2761    1.1497   -1.0132 S   0  0  0  0  0  0  0  0  0  0  0  0
   -1.8494    0.2838    0.4858 O   0  0  0  0  0  0  0  0  0  0  0  0
   -2.3959   -0.9191    1.0041 C   0  0  0  0  0  0  0  0  0  0  0  0
   -1.5957   -1.3177    2.2280 C   0  0  0  0  0  0  0  0  0  0  0  0
   -1.8852   -0.4236   -1.8810 O   0  0  0  0  0  0  0  0  0  0  0  0
   -2.0411   -0.3399   -3.2896 C   0  0  0  0  0  0  0  0  0  0  0  0
   -1.4820   -1.6026   -3.9135 C   0  0  0  0  0  0  0  0  0  0  0  0
  1  2  1  0
  2  3  1  0
  3  4  1  0
  4  5  2  0
  4  6  1  0
  6  7  1  0
  6  8  1  0
  8  9  2  0
  8 10  1  0
 10 11  1  0
 11 12  1  0
 12 13  2  0
 12 14  1  0
 14 15  1  0
 15 16  1  0
 12 17  1  0
 17 18  1  0
 18 19  1  0
M  END
>  <target>  (957) 
-2.5180000000000002

$$$$

     RDKit          3D

  9  9  0  0  0  0  0  0  0  0999 V2000
    2.3282    0.9780   -0.1163 C   0  0  0  0  0  0  0  0  0  0  0  0
    1.6072   -0.3626   -0.1590 C   0  0  0  0  0  0  0  0  0  0  0  0
    1.8759   -0.9897   -1.4122 O   0  0  0  0  0  0  0  0  0  0  0  0
    0.1139   -0.2289    0.0452 C   0  0  0  0  0  0  0  0  0  0  0  0
   -0.4903   -0.7367    1.2045 C   0  0  0  0  0  0  0  0  0  0  0  0
   -1.8682   -0.6175    1.3975 C   0  0  0  0  0  0  0  0  0  0  0  0
   -2.6572    0.0101    0.4355 C   0  0  0  0  0  0  0  0  0  0  0  0
   -2.0704    0.5198   -0.7206 C   0  0  0  0  0  0  0  0  0  0  0  0
   -0.6935    0.4016   -0.9150 C   0  0  0  0  0  0  0  0  0  0  0  0
  1  2  1  0
  2  3  1  0
  2  4  1  0
  4  5  2  0
  5  6  1  0
  6  7  2  0
  7  8  1  0
  8  9  2  0
  9  4  1  0
M  END
>  <target>  (958) 
-0.92

$$$$

     RDKit          3D

  5  4  0  0  0  0  0  0  0  0999 V2000
   -1.2079    0.3704    0.3159 C   0  0  0  0  0  0  0  0  0  0  0  0
   -0.1094   -0.5693   -0.1689 C   0  0  0  0  0  0  0  0  0  0  0  0
   -0.0706   -2.0064    0.9074 Cl  0  0  0  0  0  0  0  0  0  0  0  0
    1.2764    0.0735   -0.1814 C   0  0  0  0  0  0  0  0  0  0  0  0
    1.3816    1.4098   -1.3582 Cl  0  0  0  0  0  0  0  0  0  0  0  0
  1  2  1  0
  2  3  1  0
  2  4  1  0
  4  5  1  0
M  END
>  <target>  (959) 
-1.6

$$$$

     RDKit          3D

  9  8  0  0  0  0  0  0  0  0999 V2000
    2.4930   -0.0344    1.2996 C   0  0  0  0  0  0  0  0  0  0  0  0
    2.2968   -1.0439    0.1773 C   0  0  0  0  0  0  0  0  0  0  0  0
    0.8276   -1.2494   -0.1993 C   0  0  0  0  0  0  0  0  0  0  0  0
    0.2105   -0.0325   -0.8354 C   0  0  0  0  0  0  0  0  0  0  0  0
   -0.7792    0.7252   -0.3247 C   0  0  0  0  0  0  0  0  0  0  0  0
   -1.4405    0.5535    1.0162 C   0  0  0  0  0  0  0  0  0  0  0  0
   -2.7444   -0.2245    0.9139 C   0  0  0  0  0  0  0  0  0  0  0  0
   -1.2423    1.8750   -1.1554 C   0  0  0  0  0  0  0  0  0  0  0  0
   -2.1292    2.6403   -0.7970 O   0  0  0  0  0  0  0  0  0  0  0  0
  1  2  1  0
  2  3  1  0
  3  4  1  0
  4  5  2  3
  5  6  1  0
  6  7  1  0
  5  8  1  0
  8  9  2  0
M  END
>  <target>  (960) 
-2.46

$$$$

     RDKit          3D

 14 13  0  0  0  0  0  0  0  0999 V2000
   -1.4069   -1.7433    2.9451 C   0  0  0  0  0  0  0  0  0  0  0  0
   -1.5080   -2.0884    1.4731 C   0  0  0  0  0  0  0  0  0  0  0  0
   -0.8528   -1.0732    0.7298 O   0  0  0  0  0  0  0  0  0  0  0  0
   -1.1138   -0.9595   -0.8719 P   0  0  0  0  0  0  0  0  0  0  0  0
   -0.6625   -2.5961   -1.8322 S   0  0  0  0  0  0  0  0  0  0  0  0
   -2.7102   -0.6491   -0.8475 O   0  0  0  0  0  0  0  0  0  0  0  0
   -3.3955   -0.4706   -2.0764 C   0  0  0  0  0  0  0  0  0  0  0  0
   -4.6745    0.2953   -1.8068 C   0  0  0  0  0  0  0  0  0  0  0  0
   -0.1673    0.8398   -1.4345 S   0  0  0  0  0  0  0  0  0  0  0  0
    1.6154    0.4915   -1.3603 C   0  0  0  0  0  0  0  0  0  0  0  0
    2.0874    0.2344    0.0682 C   0  0  0  0  0  0  0  0  0  0  0  0
    3.9032    0.0380    0.1528 S   0  0  0  0  0  0  0  0  0  0  0  0
    4.4401    1.7775    0.0508 C   0  0  0  0  0  0  0  0  0  0  0  0
    4.2160    2.5218    1.3550 C   0  0  0  0  0  0  0  0  0  0  0  0
  1  2  1  0
  2  3  1  0
  3  4  1  0
  4  5  2  0
  4  6  1  0
  6  7  1  0
  7  8  1  0
  4  9  1  0
  9 10  1  0
 10 11  1  0
 11 12  1  0
 12 13  1  0
 13 14  1  0
M  END
>  <target>  (961) 
-4.23

$$$$

     RDKit          3D

 25 28  0  0  0  0  0  0  0  0999 V2000
    5.8840    1.8147   -0.2569 C   0  0  0  0  0  0  0  0  0  0  0  0
    4.6215    1.2337   -0.8171 C   0  0  0  0  0  0  0  0  0  0  0  0
    4.0163    1.7032   -1.7680 O   0  0  0  0  0  0  0  0  0  0  0  0
    4.2715    0.1326   -0.1041 O   0  0  0  0  0  0  0  0  0  0  0  0
    3.0819   -0.6298   -0.4354 C   0  0  0  0  0  0  0  0  0  0  0  0
    3.1814   -1.1616   -1.8776 C   0  0  0  0  0  0  0  0  0  0  0  0
    3.1036   -1.8560    0.5366 C   0  0  0  0  0  0  0  0  0  0  0  0
    1.6655   -2.0912    1.0210 C   0  0  0  0  0  0  0  0  0  0  0  0
    0.8178   -1.1540    0.1723 C   0  0  0  0  0  0  0  0  0  0  0  0
   -0.5860   -0.7953    0.6817 C   0  0  0  0  0  0  0  0  0  0  0  0
   -1.4379   -2.0525    0.9065 C   0  0  0  0  0  0  0  0  0  0  0  0
   -2.8400   -1.6930    1.3811 C   0  0  0  0  0  0  0  0  0  0  0  0
   -3.5287   -0.7322    0.4411 C   0  0  0  0  0  0  0  0  0  0  0  0
   -4.7738   -1.0030    0.0099 C   0  0  0  0  0  0  0  0  0  0  0  0
   -5.5424   -0.0407   -0.8124 C   0  0  0  0  0  0  0  0  0  0  0  0
   -6.6636   -0.3463   -1.2109 O   0  0  0  0  0  0  0  0  0  0  0  0
   -4.9445    1.3197   -1.0521 C   0  0  0  0  0  0  0  0  0  0  0  0
   -3.4301    1.2224   -1.1660 C   0  0  0  0  0  0  0  0  0  0  0  0
   -2.7497    0.5321    0.0538 C   0  0  0  0  0  0  0  0  0  0  0  0
   -2.7760    1.5017    1.2567 C   0  0  0  0  0  0  0  0  0  0  0  0
   -1.2786    0.1380   -0.3564 C   0  0  0  0  0  0  0  0  0  0  0  0
   -0.3826    1.3492   -0.7184 C   0  0  0  0  0  0  0  0  0  0  0  0
    1.0533    0.9548   -1.1114 C   0  0  0  0  0  0  0  0  0  0  0  0
    1.7334    0.0759   -0.0450 C   0  0  0  0  0  0  0  0  0  0  0  0
    1.9415    0.9214    1.2437 C   0  0  0  0  0  0  0  0  0  0  0  0
  1  2  1  0
  2  3  2  0
  2  4  1  0
  4  5  1  0
  5  6  1  0
  5  7  1  0
  7  8  1  0
  8  9  1  0
  9 10  1  0
 10 11  1  0
 11 12  1  0
 12 13  1  0
 13 14  2  0
 14 15  1  0
 15 16  2  0
 15 17  1  0
 17 18  1  0
 18 19  1  0
 19 20  1  0
 19 21  1  0
 21 22  1  0
 22 23  1  0
 23 24  1  0
 24 25  1  0
 19 13  1  0
 21 10  1  0
 24  5  1  0
 24  9  1  0
M  END
>  <target>  (962) 
-5.284

$$$$

     RDKit          3D

 15 16  0  0  0  0  0  0  0  0999 V2000
    5.2038   -0.4065   -0.1576 Cl  0  0  0  0  0  0  0  0  0  0  0  0
    3.4893   -0.2726   -0.1056 C   0  0  0  0  0  0  0  0  0  0  0  0
    2.7997    0.2184   -1.2115 C   0  0  0  0  0  0  0  0  0  0  0  0
    1.4070    0.3270   -1.1689 C   0  0  0  0  0  0  0  0  0  0  0  0
    0.6929   -0.0541   -0.0210 C   0  0  0  0  0  0  0  0  0  0  0  0
    1.4070   -0.5469    1.0837 C   0  0  0  0  0  0  0  0  0  0  0  0
    2.7996   -0.6558    1.0420 C   0  0  0  0  0  0  0  0  0  0  0  0
   -0.7749    0.0605    0.0235 C   0  0  0  0  0  0  0  0  0  0  0  0
   -1.6073   -1.0011   -0.3884 C   0  0  0  0  0  0  0  0  0  0  0  0
   -0.9562   -2.4987   -0.9694 Cl  0  0  0  0  0  0  0  0  0  0  0  0
   -3.0030   -0.8907   -0.3456 C   0  0  0  0  0  0  0  0  0  0  0  0
   -3.6003    0.2813    0.1090 C   0  0  0  0  0  0  0  0  0  0  0  0
   -2.8021    1.3442    0.5214 C   0  0  0  0  0  0  0  0  0  0  0  0
   -1.4062    1.2365    0.4797 C   0  0  0  0  0  0  0  0  0  0  0  0
   -0.4969    2.6122    1.0134 Cl  0  0  0  0  0  0  0  0  0  0  0  0
  1  2  1  0
  2  3  2  0
  3  4  1  0
  4  5  2  0
  5  6  1  0
  6  7  2  0
  5  8  1  0
  8  9  2  0
  9 10  1  0
  9 11  1  0
 11 12  2  0
 12 13  1  0
 13 14  2  0
 14 15  1  0
  7  2  1  0
 14  8  1  0
M  END
>  <target>  (963) 
-6.14

$$$$

     RDKit          3D

 21 22  0  0  0  0  0  0  0  0999 V2000
   -3.3288   -1.5803    1.4699 F   0  0  0  0  0  0  0  0  0  0  0  0
   -3.7459   -0.4587    0.8663 C   0  0  0  0  0  0  0  0  0  0  0  0
   -5.1143   -0.1794    0.9133 C   0  0  0  0  0  0  0  0  0  0  0  0
   -5.6151    0.9696    0.3064 C   0  0  0  0  0  0  0  0  0  0  0  0
   -4.7405    1.8344   -0.3457 C   0  0  0  0  0  0  0  0  0  0  0  0
   -3.3753    1.5443   -0.3858 C   0  0  0  0  0  0  0  0  0  0  0  0
   -2.5753    2.4102   -1.0269 F   0  0  0  0  0  0  0  0  0  0  0  0
   -2.8514    0.3973    0.2163 C   0  0  0  0  0  0  0  0  0  0  0  0
   -1.3987    0.0693    0.1851 C   0  0  0  0  0  0  0  0  0  0  0  0
   -0.9709   -0.9481    0.7249 O   0  0  0  0  0  0  0  0  0  0  0  0
   -0.5578    0.9555   -0.4745 N   0  0  0  0  0  0  0  0  0  0  0  0
    0.8115    0.8924   -0.6506 C   0  0  0  0  0  0  0  0  0  0  0  0
    1.3538    1.7994   -1.2761 O   0  0  0  0  0  0  0  0  0  0  0  0
    1.4205   -0.2008   -0.0939 N   0  0  0  0  0  0  0  0  0  0  0  0
    2.7836   -0.5443   -0.1018 C   0  0  0  0  0  0  0  0  0  0  0  0
    3.7790    0.2213   -0.7136 C   0  0  0  0  0  0  0  0  0  0  0  0
    5.1157   -0.1929   -0.6754 C   0  0  0  0  0  0  0  0  0  0  0  0
    5.4597   -1.3745   -0.0245 C   0  0  0  0  0  0  0  0  0  0  0  0
    7.1027   -1.8815    0.0213 Cl  0  0  0  0  0  0  0  0  0  0  0  0
    4.4785   -2.1472    0.5893 C   0  0  0  0  0  0  0  0  0  0  0  0
    3.1442   -1.7316    0.5498 C   0  0  0  0  0  0  0  0  0  0  0  0
  1  2  1  0
  2  3  2  0
  3  4  1  0
  4  5  2  0
  5  6  1  0
  6  7  1  0
  6  8  2  0
  8  9  1  0
  9 10  2  0
  9 11  1  0
 11 12  1  0
 12 13  2  0
 12 14  1  0
 14 15  1  0
 15 16  2  0
 16 17  1  0
 17 18  2  0
 18 19  1  0
 18 20  1  0
 20 21  2  0
  8  2  1  0
 21 15  1  0
M  END
>  <target>  (964) 
-6.02

$$$$

     RDKit          3D

 17 18  0  0  0  0  0  0  0  0999 V2000
    2.1536   -2.0101   -1.4114 O   0  0  0  0  0  0  0  0  0  0  0  0
    2.2238   -0.8959   -0.6230 C   0  0  0  0  0  0  0  0  0  0  0  0
    3.3864   -0.6868    0.1094 C   0  0  0  0  0  0  0  0  0  0  0  0
    3.4859    0.4477    0.9122 C   0  0  0  0  0  0  0  0  0  0  0  0
    4.9169    0.7241    1.8269 Cl  0  0  0  0  0  0  0  0  0  0  0  0
    2.4371    1.3685    0.9780 C   0  0  0  0  0  0  0  0  0  0  0  0
    1.2698    1.1508    0.2412 C   0  0  0  0  0  0  0  0  0  0  0  0
    1.1567    0.0026   -0.5464 C   0  0  0  0  0  0  0  0  0  0  0  0
    0.0443   -0.2638   -1.3138 O   0  0  0  0  0  0  0  0  0  0  0  0
   -1.1777   -0.1682   -0.6834 C   0  0  0  0  0  0  0  0  0  0  0  0
   -1.4444   -0.9043    0.4775 C   0  0  0  0  0  0  0  0  0  0  0  0
   -2.7021   -0.8219    1.0775 C   0  0  0  0  0  0  0  0  0  0  0  0
   -3.6912   -0.0193    0.5087 C   0  0  0  0  0  0  0  0  0  0  0  0
   -5.2386    0.0791    1.2538 Cl  0  0  0  0  0  0  0  0  0  0  0  0
   -3.4405    0.6989   -0.6592 C   0  0  0  0  0  0  0  0  0  0  0  0
   -2.1834    0.6173   -1.2595 C   0  0  0  0  0  0  0  0  0  0  0  0
   -1.8995    1.5142   -2.7061 Cl  0  0  0  0  0  0  0  0  0  0  0  0
  1  2  1  0
  2  3  2  0
  3  4  1  0
  4  5  1  0
  4  6  2  0
  6  7  1  0
  7  8  2  0
  8  9  1  0
  9 10  1  0
 10 11  2  0
 11 12  1  0
 12 13  2  0
 13 14  1  0
 13 15  1  0
 15 16  2  0
 16 17  1  0
  8  2  1  0
 16 10  1  0
M  END
>  <target>  (965) 
-4.46

$$$$

     RDKit          3D

 28 28  0  0  0  0  0  0  0  0999 V2000
    0.2277   -2.7226    1.6278 C   0  0  0  0  0  0  0  0  0  0  0  0
   -0.4174   -1.6311    0.8757 C   0  0  0  0  0  0  0  0  0  0  0  0
    0.1994   -0.7723    0.2700 O   0  0  0  0  0  0  0  0  0  0  0  0
   -1.7614   -1.7497    0.9988 O   0  0  0  0  0  0  0  0  0  0  0  0
   -2.5332   -0.7774    0.2751 C   0  0  0  0  0  0  0  0  0  0  0  0
   -2.7540    0.4571    1.1450 C   0  0  0  0  0  0  0  0  0  0  0  0
   -3.5148    1.5782    0.4363 C   0  0  0  0  0  0  0  0  0  0  0  0
   -4.9566    1.2040    0.0814 C   0  0  0  0  0  0  0  0  0  0  0  0
   -5.7048    2.3995   -0.5181 C   0  0  0  0  0  0  0  0  0  0  0  0
   -7.1203    2.0511   -1.0149 C   0  0  0  0  0  0  0  0  0  0  0  0
   -8.0425    1.5981    0.1179 C   0  0  0  0  0  0  0  0  0  0  0  0
   -7.7324    3.2604   -1.7263 C   0  0  0  0  0  0  0  0  0  0  0  0
    1.2568   -3.4708    1.0495 C   0  0  0  0  0  0  0  0  0  0  0  0
    1.5903   -3.3061   -0.3748 C   0  0  0  0  0  0  0  0  0  0  0  0
    0.7696   -3.3768   -1.2723 O   0  0  0  0  0  0  0  0  0  0  0  0
    2.9196   -3.0724   -0.4819 O   0  0  0  0  0  0  0  0  0  0  0  0
    3.3879   -2.7952   -1.8088 C   0  0  0  0  0  0  0  0  0  0  0  0
    3.1632   -1.3309   -2.1861 C   0  0  0  0  0  0  0  0  0  0  0  0
    3.6975   -0.3158   -1.1684 C   0  0  0  0  0  0  0  0  0  0  0  0
    5.2175   -0.3696   -1.0009 C   0  0  0  0  0  0  0  0  0  0  0  0
    5.7536    0.6284    0.0336 C   0  0  0  0  0  0  0  0  0  0  0  0
    5.4843    2.1166   -0.2587 C   0  0  0  0  0  0  0  0  0  0  0  0
    6.0621    2.5623   -1.6022 C   0  0  0  0  0  0  0  0  0  0  0  0
    6.0678    2.9766    0.8662 C   0  0  0  0  0  0  0  0  0  0  0  0
    1.9255   -4.4456    1.8037 C   0  0  0  0  0  0  0  0  0  0  0  0
    1.5615   -4.6682    3.1331 C   0  0  0  0  0  0  0  0  0  0  0  0
    0.5300   -3.9261    3.7101 C   0  0  0  0  0  0  0  0  0  0  0  0
   -0.1358   -2.9520    2.9630 C   0  0  0  0  0  0  0  0  0  0  0  0
  1  2  1  0
  2  3  2  0
  2  4  1  0
  4  5  1  0
  5  6  1  0
  6  7  1  0
  7  8  1  0
  8  9  1  0
  9 10  1  0
 10 11  1  0
 10 12  1  0
  1 13  2  0
 13 14  1  0
 14 15  2  0
 14 16  1  0
 16 17  1  0
 17 18  1  0
 18 19  1  0
 19 20  1  0
 20 21  1  0
 21 22  1  0
 22 23  1  0
 22 24  1  0
 13 25  1  0
 25 26  2  0
 26 27  1  0
 27 28  2  0
 28  1  1  0
M  END
>  <target>  (966) 
-6.6370000000000005

$$$$

     RDKit          3D

 25 28  0  0  0  0  0  0  0  0999 V2000
    3.1136   -1.7931   -1.2216 C   0  0  0  0  0  0  0  0  0  0  0  0
    1.9849   -0.8697   -0.6919 C   0  0  0  0  0  0  0  0  0  0  0  0
    1.3953   -0.1253   -1.8967 C   0  0  0  0  0  0  0  0  0  0  0  0
    0.1248    0.6613   -1.5952 C   0  0  0  0  0  0  0  0  0  0  0  0
   -0.3288    1.2442   -2.8136 O   0  0  0  0  0  0  0  0  0  0  0  0
   -0.9806   -0.2407   -1.0039 C   0  0  0  0  0  0  0  0  0  0  0  0
   -0.4599   -1.0008    0.2467 C   0  0  0  0  0  0  0  0  0  0  0  0
   -1.5034   -2.0327    0.7580 C   0  0  0  0  0  0  0  0  0  0  0  0
   -2.9430   -1.7346    0.3502 C   0  0  0  0  0  0  0  0  0  0  0  0
   -3.1650   -0.2523    0.3377 C   0  0  0  0  0  0  0  0  0  0  0  0
   -3.9829    0.3290    1.2319 C   0  0  0  0  0  0  0  0  0  0  0  0
   -4.1735    1.7968    1.2665 C   0  0  0  0  0  0  0  0  0  0  0  0
   -4.9784    2.2796    2.0600 O   0  0  0  0  0  0  0  0  0  0  0  0
   -3.3997    2.6482    0.2929 C   0  0  0  0  0  0  0  0  0  0  0  0
   -2.1195    1.9565   -0.1680 C   0  0  0  0  0  0  0  0  0  0  0  0
   -2.3501    0.5186   -0.7064 C   0  0  0  0  0  0  0  0  0  0  0  0
   -3.1998    0.5784   -2.0003 C   0  0  0  0  0  0  0  0  0  0  0  0
    0.9044   -1.7193    0.0229 C   0  0  0  0  0  0  0  0  0  0  0  0
    1.5688   -2.0685    1.3672 C   0  0  0  0  0  0  0  0  0  0  0  0
    2.5370   -0.9211    1.6735 C   0  0  0  0  0  0  0  0  0  0  0  0
    2.4780    0.0346    0.4715 C   0  0  0  0  0  0  0  0  0  0  0  0
    3.7710    0.8155    0.2250 C   0  0  0  0  0  0  0  0  0  0  0  0
    4.1406    1.1171   -0.9117 O   0  0  0  0  0  0  0  0  0  0  0  0
    4.5296    1.3409    1.4390 C   0  0  0  0  0  0  0  0  0  0  0  0
    3.7265    2.1913    2.2361 O   0  0  0  0  0  0  0  0  0  0  0  0
  1  2  1  0
  2  3  1  0
  3  4  1  0
  4  5  1  0
  4  6  1  0
  6  7  1  0
  7  8  1  0
  8  9  1  0
  9 10  1  0
 10 11  2  0
 11 12  1  0
 12 13  2  0
 12 14  1  0
 14 15  1  0
 15 16  1  0
 16 17  1  0
  7 18  1  0
 18 19  1  0
 19 20  1  0
 20 21  1  0
 21 22  1  0
 22 23  2  0
 22 24  1  0
 24 25  1  0
 21  2  1  0
 18  2  1  0
 16  6  1  0
 16 10  1  0
M  END
>  <target>  (967) 
-3.24

$$$$

     RDKit          3D

  9  9  0  0  0  0  0  0  0  0999 V2000
    2.8219   -0.6919    0.0009 C   0  0  0  0  0  0  0  0  0  0  0  0
    1.3650   -0.3369   -0.0394 C   0  0  0  0  0  0  0  0  0  0  0  0
    0.3896   -1.3387    0.0396 C   0  0  0  0  0  0  0  0  0  0  0  0
   -0.9729   -1.0151    0.0342 C   0  0  0  0  0  0  0  0  0  0  0  0
   -2.0090   -2.0934    0.1530 C   0  0  0  0  0  0  0  0  0  0  0  0
   -1.3548    0.3311   -0.0201 C   0  0  0  0  0  0  0  0  0  0  0  0
   -0.3938    1.3466   -0.0996 C   0  0  0  0  0  0  0  0  0  0  0  0
   -0.8124    2.7869   -0.1235 C   0  0  0  0  0  0  0  0  0  0  0  0
    0.9640    1.0038   -0.0931 C   0  0  0  0  0  0  0  0  0  0  0  0
  1  2  1  0
  2  3  2  0
  3  4  1  0
  4  5  1  0
  4  6  2  0
  6  7  1  0
  7  8  1  0
  7  9  2  0
  9  2  1  0
M  END
>  <target>  (968) 
-3.4

$$$$

     RDKit          3D

 28 28  0  0  0  0  0  0  0  0999 V2000
    8.3367    2.1034   -0.9322 C   0  0  0  0  0  0  0  0  0  0  0  0
    8.2612    2.5889    0.5071 C   0  0  0  0  0  0  0  0  0  0  0  0
    7.4475    1.6696    1.4204 C   0  0  0  0  0  0  0  0  0  0  0  0
    5.9623    1.6130    1.0561 C   0  0  0  0  0  0  0  0  0  0  0  0
    5.1774    0.7668    2.0611 C   0  0  0  0  0  0  0  0  0  0  0  0
    3.6927    0.7056    1.6971 C   0  0  0  0  0  0  0  0  0  0  0  0
    2.9089   -0.1424    2.7029 C   0  0  0  0  0  0  0  0  0  0  0  0
    1.4163   -0.1859    2.3823 C   0  0  0  0  0  0  0  0  0  0  0  0
    1.1849   -0.7326    1.0763 O   0  0  0  0  0  0  0  0  0  0  0  0
    1.0854   -2.0824    1.0185 C   0  0  0  0  0  0  0  0  0  0  0  0
    1.2611   -2.8754    1.9278 O   0  0  0  0  0  0  0  0  0  0  0  0
    0.8652   -2.4862   -0.3834 C   0  0  0  0  0  0  0  0  0  0  0  0
    1.6932   -3.4972   -0.8942 C   0  0  0  0  0  0  0  0  0  0  0  0
    1.5744   -3.8958   -2.2265 C   0  0  0  0  0  0  0  0  0  0  0  0
    0.6266   -3.2937   -3.0530 C   0  0  0  0  0  0  0  0  0  0  0  0
   -0.2141   -2.3005   -2.5458 C   0  0  0  0  0  0  0  0  0  0  0  0
   -0.1011   -1.8950   -1.2059 C   0  0  0  0  0  0  0  0  0  0  0  0
   -1.0640   -0.9141   -0.6645 C   0  0  0  0  0  0  0  0  0  0  0  0
   -1.6249   -1.0317    0.4108 O   0  0  0  0  0  0  0  0  0  0  0  0
   -1.2040    0.1022   -1.5513 O   0  0  0  0  0  0  0  0  0  0  0  0
   -2.0955    1.1537   -1.1489 C   0  0  0  0  0  0  0  0  0  0  0  0
   -3.5247    0.8098   -1.5599 C   0  0  0  0  0  0  0  0  0  0  0  0
   -4.4982    1.9249   -1.1831 C   0  0  0  0  0  0  0  0  0  0  0  0
   -5.9281    1.6793   -1.6739 C   0  0  0  0  0  0  0  0  0  0  0  0
   -6.6000    0.3954   -1.1741 C   0  0  0  0  0  0  0  0  0  0  0  0
   -6.7195    0.3240    0.3503 C   0  0  0  0  0  0  0  0  0  0  0  0
   -7.4040   -0.9534    0.8440 C   0  0  0  0  0  0  0  0  0  0  0  0
   -8.8729   -1.0455    0.4604 C   0  0  0  0  0  0  0  0  0  0  0  0
  1  2  1  0
  2  3  1  0
  3  4  1  0
  4  5  1  0
  5  6  1  0
  6  7  1  0
  7  8  1  0
  8  9  1  0
  9 10  1  0
 10 11  2  0
 10 12  1  0
 12 13  2  0
 13 14  1  0
 14 15  2  0
 15 16  1  0
 16 17  2  0
 17 18  1  0
 18 19  2  0
 18 20  1  0
 20 21  1  0
 21 22  1  0
 22 23  1  0
 23 24  1  0
 24 25  1  0
 25 26  1  0
 26 27  1  0
 27 28  1  0
 17 12  1  0
M  END
>  <target>  (969) 
-5.115

$$$$

     RDKit          3D

 16 15  0  0  0  0  0  0  0  0999 V2000
   -8.1046   -0.9074    0.3581 C   0  0  0  0  0  0  0  0  0  0  0  0
   -6.7858   -0.1498    0.3920 C   0  0  0  0  0  0  0  0  0  0  0  0
   -5.6244   -1.0703    0.7691 C   0  0  0  0  0  0  0  0  0  0  0  0
   -4.2903   -0.3350    0.9354 C   0  0  0  0  0  0  0  0  0  0  0  0
   -3.7458    0.2377   -0.3760 C   0  0  0  0  0  0  0  0  0  0  0  0
   -2.4124    0.9745   -0.2097 C   0  0  0  0  0  0  0  0  0  0  0  0
   -1.2494    0.0549    0.1693 C   0  0  0  0  0  0  0  0  0  0  0  0
    0.0747    0.8220    0.2018 C   0  0  0  0  0  0  0  0  0  0  0  0
    1.2390   -0.0936    0.5840 C   0  0  0  0  0  0  0  0  0  0  0  0
    2.5628    0.6735    0.6161 C   0  0  0  0  0  0  0  0  0  0  0  0
    3.7260   -0.2456    0.9947 C   0  0  0  0  0  0  0  0  0  0  0  0
    5.0600    0.4918    1.1451 C   0  0  0  0  0  0  0  0  0  0  0  0
    5.5648    1.2150   -0.1078 C   0  0  0  0  0  0  0  0  0  0  0  0
    5.7213    0.3444   -1.3549 C   0  0  0  0  0  0  0  0  0  0  0  0
    6.7061   -0.8045   -1.1786 C   0  0  0  0  0  0  0  0  0  0  0  0
    6.8674   -1.4904   -2.4141 O   0  0  0  0  0  0  0  0  0  0  0  0
  1  2  1  0
  2  3  1  0
  3  4  1  0
  4  5  1  0
  5  6  1  0
  6  7  1  0
  7  8  1  0
  8  9  1  0
  9 10  1  0
 10 11  1  0
 11 12  1  0
 12 13  1  0
 13 14  1  0
 14 15  1  0
 15 16  1  0
M  END
>  <target>  (970) 
-6.35

$$$$

     RDKit          3D

 16 17  0  0  0  0  0  0  0  0999 V2000
   -0.4707   -2.6558   -0.8630 Cl  0  0  0  0  0  0  0  0  0  0  0  0
   -1.3706   -1.2174   -0.5100 C   0  0  0  0  0  0  0  0  0  0  0  0
   -2.7603   -1.2794   -0.6667 C   0  0  0  0  0  0  0  0  0  0  0  0
   -3.5461   -0.1614   -0.4009 C   0  0  0  0  0  0  0  0  0  0  0  0
   -2.9428    1.0198    0.0219 C   0  0  0  0  0  0  0  0  0  0  0  0
   -1.5533    1.0843    0.1794 C   0  0  0  0  0  0  0  0  0  0  0  0
   -0.8875    2.5940    0.7095 Cl  0  0  0  0  0  0  0  0  0  0  0  0
   -0.7344   -0.0334   -0.0830 C   0  0  0  0  0  0  0  0  0  0  0  0
    0.7344    0.0334    0.0830 C   0  0  0  0  0  0  0  0  0  0  0  0
    1.3484   -0.2859    1.3118 C   0  0  0  0  0  0  0  0  0  0  0  0
    0.4201   -0.7729    2.6918 Cl  0  0  0  0  0  0  0  0  0  0  0  0
    2.7381   -0.2222    1.4676 C   0  0  0  0  0  0  0  0  0  0  0  0
    3.5461    0.1614    0.4009 C   0  0  0  0  0  0  0  0  0  0  0  0
    2.9650    0.4818   -0.8229 C   0  0  0  0  0  0  0  0  0  0  0  0
    1.5755    0.4190   -0.9812 C   0  0  0  0  0  0  0  0  0  0  0  0
    0.9382    0.8348   -2.5383 Cl  0  0  0  0  0  0  0  0  0  0  0  0
  1  2  1  0
  2  3  2  0
  3  4  1  0
  4  5  2  0
  5  6  1  0
  6  7  1  0
  6  8  2  0
  8  9  1  0
  9 10  2  0
 10 11  1  0
 10 12  1  0
 12 13  2  0
 13 14  1  0
 14 15  2  0
 15 16  1  0
  8  2  1  0
 15  9  1  0
M  END
>  <target>  (971) 
-7.39

$$$$

     RDKit          3D

 11 11  0  0  0  0  0  0  0  0999 V2000
   -0.1382    2.4019    0.3022 O   0  0  0  0  0  0  0  0  0  0  0  0
    0.2704    1.2445    0.2911 C   0  0  0  0  0  0  0  0  0  0  0  0
    1.5564    0.9567    0.6620 N   0  0  0  0  0  0  0  0  0  0  0  0
    2.2615   -0.0849    0.1420 C   0  0  0  0  0  0  0  0  0  0  0  0
    3.4864   -0.0606    0.0818 O   0  0  0  0  0  0  0  0  0  0  0  0
    1.5453   -1.1092   -0.3969 N   0  0  0  0  0  0  0  0  0  0  0  0
    0.2585   -0.9652   -0.8415 C   0  0  0  0  0  0  0  0  0  0  0  0
   -0.1600   -1.6465   -1.7729 O   0  0  0  0  0  0  0  0  0  0  0  0
   -0.5809    0.0420   -0.0758 C   0  0  0  0  0  0  0  0  0  0  0  0
   -1.0593   -0.6223    1.2252 C   0  0  0  0  0  0  0  0  0  0  0  0
   -1.7930    0.4745   -0.9069 C   0  0  0  0  0  0  0  0  0  0  0  0
  1  2  2  0
  2  3  1  0
  3  4  1  0
  4  5  2  0
  4  6  1  0
  6  7  1  0
  7  8  2  0
  7  9  1  0
  9 10  1  0
  9 11  1  0
  9  2  1  0
M  END
>  <target>  (972) 
-1.742

$$$$

     RDKit          3D

  4  3  0  0  0  0  0  0  0  0999 V2000
   -1.1280   -0.5531    0.3052 C   0  0  0  0  0  0  0  0  0  0  0  0
   -0.1419    0.5615   -0.0313 C   0  0  0  0  0  0  0  0  0  0  0  0
    1.2909    0.0380   -0.0608 C   0  0  0  0  0  0  0  0  0  0  0  0
   -0.6417    1.4202   -1.9473 I   0  0  0  0  0  0  0  0  0  0  0  0
  1  2  1  0
  2  3  1  0
  2  4  1  0
M  END
>  <target>  (973) 
-2.09

$$$$

     RDKit          3D

 12 12  0  0  0  0  0  0  0  0999 V2000
   -2.2792    1.7498    0.3293 O   0  0  0  0  0  0  0  0  0  0  0  0
   -1.3825    1.6614   -0.5179 N   0  0  0  0  0  0  0  0  0  0  0  0
   -1.2909    2.3339   -1.5522 O   0  0  0  0  0  0  0  0  0  0  0  0
   -0.3082    0.7299   -0.2394 C   0  0  0  0  0  0  0  0  0  0  0  0
    1.0082    1.2092   -0.2777 C   0  0  0  0  0  0  0  0  0  0  0  0
    2.0580    0.3522    0.0624 C   0  0  0  0  0  0  0  0  0  0  0  0
    1.7972   -0.9686    0.4416 C   0  0  0  0  0  0  0  0  0  0  0  0
    0.4852   -1.4479    0.4730 C   0  0  0  0  0  0  0  0  0  0  0  0
   -0.5669   -0.5900    0.1250 C   0  0  0  0  0  0  0  0  0  0  0  0
   -1.9088   -1.1352    0.0877 N   0  0  0  0  0  0  0  0  0  0  0  0
   -2.2904   -1.7612    1.0840 O   0  0  0  0  0  0  0  0  0  0  0  0
   -2.5468   -0.9781   -0.9601 O   0  0  0  0  0  0  0  0  0  0  0  0
  1  2  1  0
  2  3  2  0
  2  4  1  0
  4  5  2  0
  5  6  1  0
  6  7  2  0
  7  8  1  0
  8  9  2  0
  9 10  1  0
 10 11  1  0
 10 12  2  0
  9  4  1  0
M  CHG  4   1  -1   2   1  10   1  11  -1
M  END
>  <target>  (974) 
-3.1

$$$$

     RDKit          3D

  6  5  0  0  0  0  0  0  0  0999 V2000
   -1.6935   -0.6992    0.4450 C   0  0  0  0  0  0  0  0  0  0  0  0
   -0.4003    0.1042    0.3320 C   0  0  0  0  0  0  0  0  0  0  0  0
   -0.6028    1.3377   -0.5398 C   0  0  0  0  0  0  0  0  0  0  0  0
    0.7285   -0.7531   -0.2333 C   0  0  0  0  0  0  0  0  0  0  0  0
    0.5171   -1.7532   -0.9193 O   0  0  0  0  0  0  0  0  0  0  0  0
    2.1379   -0.3017    0.0570 C   0  0  0  0  0  0  0  0  0  0  0  0
  1  2  1  0
  2  3  1  0
  2  4  1  0
  4  5  2  0
  4  6  1  0
M  END
>  <target>  (975) 
-0.12

$$$$

     RDKit          3D

 16 15  0  0  0  0  0  0  0  0999 V2000
    8.1685    1.2227    0.7976 C   0  0  0  0  0  0  0  0  0  0  0  0
    7.7396   -0.1953    0.4537 C   0  0  0  0  0  0  0  0  0  0  0  0
    6.4099   -0.2658   -0.3002 C   0  0  0  0  0  0  0  0  0  0  0  0
    5.2149    0.2034    0.5328 C   0  0  0  0  0  0  0  0  0  0  0  0
    3.8997    0.0133   -0.2285 C   0  0  0  0  0  0  0  0  0  0  0  0
    2.7049    0.4822    0.6052 C   0  0  0  0  0  0  0  0  0  0  0  0
    1.3728    0.4279   -0.1504 C   0  0  0  0  0  0  0  0  0  0  0  0
    0.9149   -0.9972   -0.4717 C   0  0  0  0  0  0  0  0  0  0  0  0
   -0.4172   -1.0514   -1.2272 C   0  0  0  0  0  0  0  0  0  0  0  0
   -1.6117   -0.5821   -0.3937 C   0  0  0  0  0  0  0  0  0  0  0  0
   -2.9263   -0.7727   -1.1543 C   0  0  0  0  0  0  0  0  0  0  0  0
   -4.1229   -0.3000   -0.3252 C   0  0  0  0  0  0  0  0  0  0  0  0
   -5.4358   -0.4960   -1.0864 C   0  0  0  0  0  0  0  0  0  0  0  0
   -6.6560    0.0642   -0.3499 C   0  0  0  0  0  0  0  0  0  0  0  0
   -6.9723   -0.6737    0.9515 C   0  0  0  0  0  0  0  0  0  0  0  0
   -8.2552   -0.1560    1.5843 C   0  0  0  0  0  0  0  0  0  0  0  0
  1  2  1  0
  2  3  1  0
  3  4  1  0
  4  5  1  0
  5  6  1  0
  6  7  1  0
  7  8  1  0
  8  9  1  0
  9 10  1  0
 10 11  1  0
 11 12  1  0
 12 13  1  0
 13 14  1  0
 14 15  1  0
 15 16  1  0
M  END
>  <target>  (976) 
-8.4

$$$$

     RDKit          3D

 11 12  0  0  0  0  0  0  0  0999 V2000
   -2.1051    1.2705   -1.3190 C   0  0  0  0  0  0  0  0  0  0  0  0
   -1.1307    0.4771   -0.4546 C   0  0  0  0  0  0  0  0  0  0  0  0
   -1.2061    0.9249    1.0177 C   0  0  0  0  0  0  0  0  0  0  0  0
   -0.2200    0.1058    1.8585 C   0  0  0  0  0  0  0  0  0  0  0  0
    0.5991   -0.8058    0.9247 C   0  0  0  0  0  0  0  0  0  0  0  0
   -0.4048   -1.8029    0.3149 C   0  0  0  0  0  0  0  0  0  0  0  0
   -1.3960   -1.0363   -0.5684 C   0  0  0  0  0  0  0  0  0  0  0  0
    1.2328    0.0509   -0.2106 C   0  0  0  0  0  0  0  0  0  0  0  0
    2.0076   -0.8084   -1.2212 C   0  0  0  0  0  0  0  0  0  0  0  0
    2.1940    1.1174    0.3361 C   0  0  0  0  0  0  0  0  0  0  0  0
    0.1997    0.7436   -0.9434 O   0  0  0  0  0  0  0  0  0  0  0  0
  1  2  1  0
  2  3  1  0
  3  4  1  0
  4  5  1  0
  5  6  1  0
  6  7  1  0
  5  8  1  0
  8  9  1  0
  8 10  1  0
  8 11  1  0
  7  2  1  0
 11  2  1  0
M  END
>  <target>  (977) 
-1.74

$$$$

     RDKit          3D

 13 15  0  0  0  0  0  0  0  0999 V2000
   -0.2171    2.1959    0.3712 C   0  0  0  0  0  0  0  0  0  0  0  0
   -0.7090    0.8012    0.1421 C   0  0  0  0  0  0  0  0  0  0  0  0
   -2.0922    0.5489    0.1144 C   0  0  0  0  0  0  0  0  0  0  0  0
   -2.6053   -0.7445   -0.0975 C   0  0  0  0  0  0  0  0  0  0  0  0
   -1.7510   -1.8308   -0.2891 C   0  0  0  0  0  0  0  0  0  0  0  0
   -0.3874   -1.5997   -0.2647 C   0  0  0  0  0  0  0  0  0  0  0  0
    0.9017   -2.8357   -0.4859 S   0  0  0  0  0  0  0  0  0  0  0  0
    2.0661   -1.5776   -0.2869 C   0  0  0  0  0  0  0  0  0  0  0  0
    3.3690   -1.5128   -0.2898 N   0  0  0  0  0  0  0  0  0  0  0  0
    3.6847   -0.1756   -0.0685 N   0  0  0  0  0  0  0  0  0  0  0  0
    2.5550    0.5009    0.0571 C   0  0  0  0  0  0  0  0  0  0  0  0
    1.5109   -0.3535   -0.0754 N   0  0  0  0  0  0  0  0  0  0  0  0
    0.1193   -0.2999   -0.0516 C   0  0  0  0  0  0  0  0  0  0  0  0
  1  2  1  0
  2  3  2  0
  3  4  1  0
  4  5  2  0
  5  6  1  0
  6  7  1  0
  7  8  1  0
  8  9  2  0
  9 10  1  0
 10 11  2  0
 11 12  1  0
 12 13  1  0
 12  8  1  0
 13  2  1  0
 13  6  2  0
M  END
>  <target>  (978) 
-2.07

$$$$

     RDKit          3D

  9  8  0  0  0  0  0  0  0  0999 V2000
    4.3090    0.2606   -0.0319 C   0  0  0  0  0  0  0  0  0  0  0  0
    3.0146   -0.5213    0.1257 C   0  0  0  0  0  0  0  0  0  0  0  0
    1.7928    0.3616   -0.1269 C   0  0  0  0  0  0  0  0  0  0  0  0
    0.4929   -0.4286    0.0326 C   0  0  0  0  0  0  0  0  0  0  0  0
   -0.7296    0.4546   -0.2200 C   0  0  0  0  0  0  0  0  0  0  0  0
   -2.0274   -0.3341   -0.0608 C   0  0  0  0  0  0  0  0  0  0  0  0
   -3.2603    0.5179   -0.3060 C   0  0  0  0  0  0  0  0  0  0  0  0
   -3.2001    1.7108   -0.5997 O   0  0  0  0  0  0  0  0  0  0  0  0
   -4.5876   -0.1819   -0.1697 C   0  0  0  0  0  0  0  0  0  0  0  0
  1  2  1  0
  2  3  1  0
  3  4  1  0
  4  5  1  0
  5  6  1  0
  6  7  1  0
  7  8  2  0
  7  9  1  0
M  END
>  <target>  (979) 
-2.05

$$$$

     RDKit          3D

 12 11  0  0  0  0  0  0  0  0999 V2000
    4.5989   -0.3931   -1.7285 C   0  0  0  0  0  0  0  0  0  0  0  0
    3.8517    0.6124   -0.8669 C   0  0  0  0  0  0  0  0  0  0  0  0
    2.6349   -0.0225   -0.1922 C   0  0  0  0  0  0  0  0  0  0  0  0
    1.8858    0.9960    0.6699 C   0  0  0  0  0  0  0  0  0  0  0  0
    0.7240    0.3876    1.4606 C   0  0  0  0  0  0  0  0  0  0  0  0
   -0.4135   -0.1252    0.5739 C   0  0  0  0  0  0  0  0  0  0  0  0
   -1.5944   -0.6157    1.4192 C   0  0  0  0  0  0  0  0  0  0  0  0
   -2.7365   -1.1643    0.5641 C   0  0  0  0  0  0  0  0  0  0  0  0
   -3.4979   -0.0858   -0.1729 C   0  0  0  0  0  0  0  0  0  0  0  0
   -3.4488    1.1114    0.0699 O   0  0  0  0  0  0  0  0  0  0  0  0
   -4.2759   -0.6578   -1.1360 O   0  0  0  0  0  0  0  0  0  0  0  0
   -5.0522    0.2778   -1.8853 C   0  0  0  0  0  0  0  0  0  0  0  0
  1  2  1  0
  2  3  1  0
  3  4  1  0
  4  5  1  0
  5  6  1  0
  6  7  1  0
  7  8  1  0
  8  9  1  0
  9 10  2  0
  9 11  1  0
 11 12  1  0
M  END
>  <target>  (980) 
-3.38

$$$$

     RDKit          3D

  8  8  0  0  0  0  0  0  0  0999 V2000
    2.6913    0.3258   -0.2313 F   0  0  0  0  0  0  0  0  0  0  0  0
    1.3666    0.1654   -0.1174 C   0  0  0  0  0  0  0  0  0  0  0  0
    0.8374   -1.1203   -0.0379 C   0  0  0  0  0  0  0  0  0  0  0  0
   -0.5423   -1.2873    0.0806 C   0  0  0  0  0  0  0  0  0  0  0  0
   -1.3666   -0.1654    0.1174 C   0  0  0  0  0  0  0  0  0  0  0  0
   -2.6913   -0.3258    0.2313 F   0  0  0  0  0  0  0  0  0  0  0  0
   -0.8374    1.1203    0.0379 C   0  0  0  0  0  0  0  0  0  0  0  0
    0.5423    1.2873   -0.0806 C   0  0  0  0  0  0  0  0  0  0  0  0
  1  2  1  0
  2  3  2  0
  3  4  1  0
  4  5  2  0
  5  6  1  0
  5  7  1  0
  7  8  2  0
  8  2  1  0
M  END
>  <target>  (981) 
-1.97

$$$$

     RDKit          3D

 19 21  0  0  0  0  0  0  0  0999 V2000
    0.6904   -1.8035    1.7416 O   0  0  0  0  0  0  0  0  0  0  0  0
    0.9212   -0.9514    0.9051 C   0  0  0  0  0  0  0  0  0  0  0  0
    0.0491   -0.0935    0.2893 N   0  0  0  0  0  0  0  0  0  0  0  0
   -1.3929   -0.1809    0.4603 C   0  0  0  0  0  0  0  0  0  0  0  0
   -2.0903    1.1688    0.6074 C   0  0  0  0  0  0  0  0  0  0  0  0
   -3.5799    0.9415    0.8196 C   0  0  0  0  0  0  0  0  0  0  0  0
   -4.1773    0.1273   -0.3052 C   0  0  0  0  0  0  0  0  0  0  0  0
   -5.3571    0.2243   -0.6294 O   0  0  0  0  0  0  0  0  0  0  0  0
   -3.3466   -0.7790   -0.9167 N   0  0  0  0  0  0  0  0  0  0  0  0
   -1.9969   -0.9620   -0.7115 C   0  0  0  0  0  0  0  0  0  0  0  0
   -1.3640   -1.7554   -1.4057 O   0  0  0  0  0  0  0  0  0  0  0  0
    0.6846    0.6831   -0.6413 C   0  0  0  0  0  0  0  0  0  0  0  0
    0.2135    1.4950   -1.4142 O   0  0  0  0  0  0  0  0  0  0  0  0
    2.1049    0.3454   -0.5707 C   0  0  0  0  0  0  0  0  0  0  0  0
    3.1825    0.8512   -1.2709 C   0  0  0  0  0  0  0  0  0  0  0  0
    4.4404    0.3113   -0.9837 C   0  0  0  0  0  0  0  0  0  0  0  0
    4.5878   -0.7088   -0.0202 C   0  0  0  0  0  0  0  0  0  0  0  0
    3.4793   -1.2066    0.6725 C   0  0  0  0  0  0  0  0  0  0  0  0
    2.2491   -0.6550    0.3726 C   0  0  0  0  0  0  0  0  0  0  0  0
  1  2  2  0
  2  3  1  0
  3  4  1  0
  4  5  1  0
  5  6  1  0
  6  7  1  0
  7  8  2  0
  7  9  1  0
  9 10  1  0
 10 11  2  0
  3 12  1  0
 12 13  2  0
 12 14  1  0
 14 15  2  0
 15 16  1  0
 16 17  2  0
 17 18  1  0
 18 19  2  0
 19  2  1  0
 10  4  1  0
 19 14  1  0
M  END
>  <target>  (982) 
-2.676

$$$$

     RDKit          3D

 23 23  0  0  0  0  0  0  0  0999 V2000
   -2.0753    3.5306    0.6898 C   0  0  0  0  0  0  0  0  0  0  0  0
   -1.5919    2.1112    0.9406 C   0  0  0  0  0  0  0  0  0  0  0  0
   -1.0401    1.4742   -0.3366 C   0  0  0  0  0  0  0  0  0  0  0  0
   -0.6548    0.0727   -0.0676 N   0  0  0  0  0  0  0  0  0  0  0  0
   -1.4868   -0.9781   -0.6922 C   0  0  0  0  0  0  0  0  0  0  0  0
   -2.8274   -1.1033    0.0335 C   0  0  0  0  0  0  0  0  0  0  0  0
   -3.6499   -2.2592   -0.5137 C   0  0  0  0  0  0  0  0  0  0  0  0
    0.7237   -0.1912   -0.0737 C   0  0  0  0  0  0  0  0  0  0  0  0
    1.3843   -0.5187    1.1263 C   0  0  0  0  0  0  0  0  0  0  0  0
    2.7678   -0.7692    1.2145 C   0  0  0  0  0  0  0  0  0  0  0  0
    3.5647   -0.7072    0.0649 C   0  0  0  0  0  0  0  0  0  0  0  0
    2.9444   -0.4152   -1.1573 C   0  0  0  0  0  0  0  0  0  0  0  0
    1.5574   -0.1653   -1.2078 C   0  0  0  0  0  0  0  0  0  0  0  0
    1.0111    0.1032   -2.5203 N   0  0  0  0  0  0  0  0  0  0  0  0
    0.6350   -0.8747   -3.1791 O   0  0  0  0  0  0  0  0  0  0  0  0
    1.0088    1.2815   -2.8983 O   0  0  0  0  0  0  0  0  0  0  0  0
    5.0468   -0.9969    0.1319 C   0  0  0  0  0  0  0  0  0  0  0  0
    5.5966   -0.6645    1.3302 F   0  0  0  0  0  0  0  0  0  0  0  0
    5.7572   -0.3214   -0.8107 F   0  0  0  0  0  0  0  0  0  0  0  0
    5.3168   -2.3148   -0.0596 F   0  0  0  0  0  0  0  0  0  0  0  0
    0.6257   -0.6317    2.3569 N   0  0  0  0  0  0  0  0  0  0  0  0
   -0.0312   -1.6687    2.5214 O   0  0  0  0  0  0  0  0  0  0  0  0
    0.7632    0.2828    3.1810 O   0  0  0  0  0  0  0  0  0  0  0  0
  1  2  1  0
  2  3  1  0
  3  4  1  0
  4  5  1  0
  5  6  1  0
  6  7  1  0
  4  8  1  0
  8  9  2  0
  9 10  1  0
 10 11  2  0
 11 12  1  0
 12 13  2  0
 13 14  1  0
 14 15  1  0
 14 16  2  0
 11 17  1  0
 17 18  1  0
 17 19  1  0
 17 20  1  0
  9 21  1  0
 21 22  1  0
 21 23  2  0
 13  8  1  0
M  CHG  4  14   1  15  -1  21   1  22  -1
M  END
>  <target>  (983) 
-5.68

$$$$

     RDKit          3D

  3  2  0  0  0  0  0  0  0  0999 V2000
   -0.8857   -0.1734   -0.0560 C   0  0  0  0  0  0  0  0  0  0  0  0
    0.4565    0.5147    0.0814 C   0  0  0  0  0  0  0  0  0  0  0  0
    1.4457   -0.4252    0.4751 O   0  0  0  0  0  0  0  0  0  0  0  0
  1  2  1  0
  2  3  1  0
M  END
>  <target>  (984) 
1.1

$$$$

     RDKit          3D

 13 14  0  0  0  0  0  0  0  0999 V2000
    4.0195    0.6429   -0.4436 O   0  0  0  0  0  0  0  0  0  0  0  0
    2.8176    0.4209   -0.3394 C   0  0  0  0  0  0  0  0  0  0  0  0
    2.3543   -0.6830    0.3070 N   0  0  0  0  0  0  0  0  0  0  0  0
    1.1286   -0.7310    0.9161 C   0  0  0  0  0  0  0  0  0  0  0  0
    0.9573   -1.4309    1.9093 O   0  0  0  0  0  0  0  0  0  0  0  0
    0.0447    0.0908    0.2395 C   0  0  0  0  0  0  0  0  0  0  0  0
   -1.1858    0.3113    1.1442 C   0  0  0  0  0  0  0  0  0  0  0  0
   -2.3895    0.0823    0.2400 C   0  0  0  0  0  0  0  0  0  0  0  0
   -1.9329   -1.0533   -0.6540 C   0  0  0  0  0  0  0  0  0  0  0  0
   -0.4896   -0.6930   -0.9891 C   0  0  0  0  0  0  0  0  0  0  0  0
    0.6316    1.4056   -0.2475 C   0  0  0  0  0  0  0  0  0  0  0  0
    0.0388    2.4800   -0.2287 O   0  0  0  0  0  0  0  0  0  0  0  0
    1.8912    1.3162   -0.7766 N   0  0  0  0  0  0  0  0  0  0  0  0
  1  2  2  0
  2  3  1  0
  3  4  1  0
  4  5  2  0
  4  6  1  0
  6  7  1  0
  7  8  1  0
  8  9  1  0
  9 10  1  0
  6 11  1  0
 11 12  2  0
 11 13  1  0
 10  6  1  0
 13  2  1  0
M  END
>  <target>  (985) 
-2.349

$$$$

     RDKit          3D

 17 17  0  0  0  0  0  0  0  0999 V2000
    1.9515    1.9934   -0.3679 C   0  0  0  0  0  0  0  0  0  0  0  0
    2.4820    0.7205   -0.1494 C   0  0  0  0  0  0  0  0  0  0  0  0
    1.7388   -0.3624    0.3493 N   0  0  0  0  0  0  0  0  0  0  0  0
    0.4191   -0.4030    0.6925 C   0  0  0  0  0  0  0  0  0  0  0  0
   -0.4009    0.5006    0.6374 O   0  0  0  0  0  0  0  0  0  0  0  0
    0.1402   -1.6581    1.1232 O   0  0  0  0  0  0  0  0  0  0  0  0
   -1.2031   -1.9861    1.5134 C   0  0  0  0  0  0  0  0  0  0  0  0
   -1.6352   -1.2530    2.7813 C   0  0  0  0  0  0  0  0  0  0  0  0
   -2.2582   -1.9344    0.3854 C   0  0  0  0  0  0  0  0  0  0  0  0
   -2.6657   -2.9608   -0.1570 O   0  0  0  0  0  0  0  0  0  0  0  0
   -2.7019   -0.6790    0.0355 N   0  0  0  0  0  0  0  0  0  0  0  0
   -3.5952   -0.4689   -1.0827 C   0  0  0  0  0  0  0  0  0  0  0  0
   -2.8490   -0.4603   -2.4053 C   0  0  0  0  0  0  0  0  0  0  0  0
    3.8334    0.4908   -0.4380 C   0  0  0  0  0  0  0  0  0  0  0  0
    4.6399    1.5166   -0.9372 C   0  0  0  0  0  0  0  0  0  0  0  0
    4.1020    2.7824   -1.1522 C   0  0  0  0  0  0  0  0  0  0  0  0
    2.7594    3.0201   -0.8676 C   0  0  0  0  0  0  0  0  0  0  0  0
  1  2  2  0
  2  3  1  0
  3  4  1  0
  4  5  2  0
  4  6  1  0
  6  7  1  0
  7  8  1  0
  7  9  1  0
  9 10  2  0
  9 11  1  0
 11 12  1  0
 12 13  1  0
  2 14  1  0
 14 15  2  0
 15 16  1  0
 16 17  2  0
 17  1  1  0
M  END
>  <target>  (986) 
-1.83

$$$$

     RDKit          3D

 26 28  0  0  0  0  0  0  0  0999 V2000
   -0.3999   -3.1230   -2.0771 C   0  0  0  0  0  0  0  0  0  0  0  0
    0.5119   -1.9440   -1.8767 C   0  0  0  0  0  0  0  0  0  0  0  0
    1.3655   -1.5934   -3.0640 C   0  0  0  0  0  0  0  0  0  0  0  0
    0.5434   -1.2729   -0.7097 C   0  0  0  0  0  0  0  0  0  0  0  0
    1.3609   -0.0967   -0.3849 C   0  0  0  0  0  0  0  0  0  0  0  0
    1.7291    0.1504    1.0667 C   0  0  0  0  0  0  0  0  0  0  0  0
    1.4955    1.5120    1.6123 C   0  0  0  0  0  0  0  0  0  0  0  0
    1.8289    2.5398    1.0406 O   0  0  0  0  0  0  0  0  0  0  0  0
    0.7840    1.4459    2.7712 O   0  0  0  0  0  0  0  0  0  0  0  0
    0.0785    2.6492    3.1136 C   0  0  0  0  0  0  0  0  0  0  0  0
   -1.1690    2.7804    2.2681 C   0  0  0  0  0  0  0  0  0  0  0  0
   -1.6494    4.0403    1.8897 C   0  0  0  0  0  0  0  0  0  0  0  0
   -2.7705    4.1512    1.0616 C   0  0  0  0  0  0  0  0  0  0  0  0
   -3.4080    3.0050    0.5843 C   0  0  0  0  0  0  0  0  0  0  0  0
   -2.9315    1.7480    0.9466 C   0  0  0  0  0  0  0  0  0  0  0  0
   -3.5690    0.6472    0.4164 O   0  0  0  0  0  0  0  0  0  0  0  0
   -2.7689   -0.3946   -0.0048 C   0  0  0  0  0  0  0  0  0  0  0  0
   -1.6277   -0.2040   -0.7915 C   0  0  0  0  0  0  0  0  0  0  0  0
   -0.8481   -1.2995   -1.1633 C   0  0  0  0  0  0  0  0  0  0  0  0
   -1.2264   -2.5865   -0.7807 C   0  0  0  0  0  0  0  0  0  0  0  0
   -2.3840   -2.7790   -0.0256 C   0  0  0  0  0  0  0  0  0  0  0  0
   -3.1584   -1.6832    0.3587 C   0  0  0  0  0  0  0  0  0  0  0  0
   -1.8575    1.6376    1.8326 C   0  0  0  0  0  0  0  0  0  0  0  0
    2.8072   -0.2238    0.0615 C   0  0  0  0  0  0  0  0  0  0  0  0
    3.4392   -1.5874    0.2226 C   0  0  0  0  0  0  0  0  0  0  0  0
    3.7788    0.8180   -0.4390 C   0  0  0  0  0  0  0  0  0  0  0  0
  1  2  1  0
  2  3  1  0
  2  4  2  3
  4  5  1  0
  5  6  1  0
  6  7  1  0
  7  8  2  0
  7  9  1  0
  9 10  1  0
 10 11  1  0
 11 12  2  0
 12 13  1  0
 13 14  2  0
 14 15  1  0
 15 16  1  0
 16 17  1  0
 17 18  2  0
 18 19  1  0
 19 20  2  0
 20 21  1  0
 21 22  2  0
 15 23  2  0
  6 24  1  0
 24 25  1  0
 24 26  1  0
 22 17  1  0
 23 11  1  0
 24  5  1  0
M  END
>  <target>  (987) 
-5.24

$$$$

     RDKit          3D

 14 14  0  0  0  0  0  0  0  0999 V2000
    3.5685    1.0886   -1.0245 C   0  0  0  0  0  0  0  0  0  0  0  0
    3.4230    0.1198    0.0537 N   0  0  0  0  0  0  0  0  0  0  0  0
    4.6669   -0.3533    0.6370 C   0  0  0  0  0  0  0  0  0  0  0  0
    2.3107   -0.7000    0.2051 C   0  0  0  0  0  0  0  0  0  0  0  0
    2.3515   -1.7854    0.7774 O   0  0  0  0  0  0  0  0  0  0  0  0
    1.1543   -0.1952   -0.3352 N   0  0  0  0  0  0  0  0  0  0  0  0
   -0.1158   -0.9123   -0.2270 C   0  0  0  0  0  0  0  0  0  0  0  0
   -1.0206   -0.5027   -1.3992 C   0  0  0  0  0  0  0  0  0  0  0  0
   -2.4622   -1.0074   -1.3223 C   0  0  0  0  0  0  0  0  0  0  0  0
   -3.4828    0.0528   -0.9031 C   0  0  0  0  0  0  0  0  0  0  0  0
   -3.4146    0.5402    0.5456 C   0  0  0  0  0  0  0  0  0  0  0  0
   -2.1730    1.3662    0.8825 C   0  0  0  0  0  0  0  0  0  0  0  0
   -1.0898    0.6186    1.6587 C   0  0  0  0  0  0  0  0  0  0  0  0
   -0.7182   -0.7852    1.1821 C   0  0  0  0  0  0  0  0  0  0  0  0
  1  2  1  0
  2  3  1  0
  2  4  1  0
  4  5  2  0
  4  6  1  0
  6  7  1  0
  7  8  1  0
  8  9  1  0
  9 10  1  0
 10 11  1  0
 11 12  1  0
 12 13  1  0
 13 14  1  0
 14  7  1  0
M  END
>  <target>  (988) 
-2.218

$$$$

     RDKit          3D

 22 26  0  0  0  0  0  0  0  0999 V2000
   -0.0923   -2.6632   -1.5886 Cl  0  0  0  0  0  0  0  0  0  0  0  0
   -0.0436   -1.2001   -0.5938 C   0  0  0  0  0  0  0  0  0  0  0  0
    0.0312    0.2213   -1.3209 C   0  0  0  0  0  0  0  0  0  0  0  0
    0.0621    0.2716   -3.0899 Cl  0  0  0  0  0  0  0  0  0  0  0  0
    1.1491    0.9669   -0.5017 C   0  0  0  0  0  0  0  0  0  0  0  0
    1.9297    2.3992   -1.2389 Cl  0  0  0  0  0  0  0  0  0  0  0  0
    0.0436    1.2001    0.5938 C   0  0  0  0  0  0  0  0  0  0  0  0
    0.0923    2.6632    1.5886 Cl  0  0  0  0  0  0  0  0  0  0  0  0
   -0.0312   -0.2213    1.3209 C   0  0  0  0  0  0  0  0  0  0  0  0
   -0.0621   -0.2716    3.0899 Cl  0  0  0  0  0  0  0  0  0  0  0  0
    1.0422   -1.0641    0.5372 C   0  0  0  0  0  0  0  0  0  0  0  0
    1.6688   -2.5587    1.2972 Cl  0  0  0  0  0  0  0  0  0  0  0  0
    2.1166   -0.0938    0.0343 C   0  0  0  0  0  0  0  0  0  0  0  0
    3.1343    0.5237    1.3462 Cl  0  0  0  0  0  0  0  0  0  0  0  0
    3.1176   -0.8008   -1.2448 Cl  0  0  0  0  0  0  0  0  0  0  0  0
   -1.1491   -0.9669    0.5017 C   0  0  0  0  0  0  0  0  0  0  0  0
   -1.9297   -2.3992    1.2389 Cl  0  0  0  0  0  0  0  0  0  0  0  0
   -2.1166    0.0938   -0.0343 C   0  0  0  0  0  0  0  0  0  0  0  0
   -3.1343   -0.5237   -1.3462 Cl  0  0  0  0  0  0  0  0  0  0  0  0
   -3.1176    0.8008    1.2448 Cl  0  0  0  0  0  0  0  0  0  0  0  0
   -1.0422    1.0641   -0.5372 C   0  0  0  0  0  0  0  0  0  0  0  0
   -1.6688    2.5587   -1.2972 Cl  0  0  0  0  0  0  0  0  0  0  0  0
  1  2  1  0
  2  3  1  0
  3  4  1  0
  3  5  1  0
  5  6  1  0
  5  7  1  0
  7  8  1  0
  7  9  1  0
  9 10  1  0
  9 11  1  0
 11 12  1  0
 11 13  1  0
 13 14  1  0
 13 15  1  0
  2 16  1  0
 16 17  1  0
 16 18  1  0
 18 19  1  0
 18 20  1  0
 18 21  1  0
 21 22  1  0
 11  2  1  0
 21  3  1  0
 13  5  1  0
 21  7  1  0
 16  9  1  0
M  END
>  <target>  (989) 
-6.8

$$$$

     RDKit          3D

  9  8  0  0  0  0  0  0  0  0999 V2000
   -4.2476    0.6610   -0.2995 C   0  0  0  0  0  0  0  0  0  0  0  0
   -3.1091   -0.2805    0.0594 C   0  0  0  0  0  0  0  0  0  0  0  0
   -1.7498    0.3270   -0.2865 C   0  0  0  0  0  0  0  0  0  0  0  0
   -0.6073   -0.6231    0.0761 C   0  0  0  0  0  0  0  0  0  0  0  0
    0.7537   -0.0151   -0.2706 C   0  0  0  0  0  0  0  0  0  0  0  0
    1.8949   -0.9664    0.0964 C   0  0  0  0  0  0  0  0  0  0  0  0
    3.2733   -0.4515   -0.3266 C   0  0  0  0  0  0  0  0  0  0  0  0
    3.6900    0.8096    0.4123 C   0  0  0  0  0  0  0  0  0  0  0  0
    5.5051    1.3006   -0.1002 Br  0  0  0  0  0  0  0  0  0  0  0  0
  1  2  1  0
  2  3  1  0
  3  4  1  0
  4  5  1  0
  5  6  1  0
  6  7  1  0
  7  8  1  0
  8  9  1  0
M  END
>  <target>  (990) 
-5.06

$$$$

     RDKit          3D

 21 22  0  0  0  0  0  0  0  0999 V2000
    5.5171   -1.2076   -0.0521 C   0  0  0  0  0  0  0  0  0  0  0  0
    4.2346   -0.4438    0.2397 C   0  0  0  0  0  0  0  0  0  0  0  0
    3.7463    0.3180   -0.9946 C   0  0  0  0  0  0  0  0  0  0  0  0
    2.4992    1.1555   -0.7216 C   0  0  0  0  0  0  0  0  0  0  0  0
    1.3251    0.3377   -0.4868 N   0  0  0  0  0  0  0  0  0  0  0  0
    0.0705    0.8997   -0.5812 C   0  0  0  0  0  0  0  0  0  0  0  0
   -0.1824    2.0549   -0.8989 O   0  0  0  0  0  0  0  0  0  0  0  0
   -0.9722    0.0358   -0.1845 N   0  0  0  0  0  0  0  0  0  0  0  0
   -2.2518    0.4692    0.1784 C   0  0  0  0  0  0  0  0  0  0  0  0
   -2.6295    1.7888    0.0789 N   0  0  0  0  0  0  0  0  0  0  0  0
   -3.8569    2.2574    0.4372 C   0  0  0  0  0  0  0  0  0  0  0  0
   -4.8025    1.6454    0.9084 O   0  0  0  0  0  0  0  0  0  0  0  0
   -3.8823    3.5969    0.1815 O   0  0  0  0  0  0  0  0  0  0  0  0
   -5.1208    4.2284    0.5090 C   0  0  0  0  0  0  0  0  0  0  0  0
   -2.9768   -0.5214    0.6411 N   0  0  0  0  0  0  0  0  0  0  0  0
   -2.2257   -1.6475    0.4863 C   0  0  0  0  0  0  0  0  0  0  0  0
   -2.5686   -2.9755    0.7839 C   0  0  0  0  0  0  0  0  0  0  0  0
   -1.6621   -3.9952    0.4821 C   0  0  0  0  0  0  0  0  0  0  0  0
   -0.4420   -3.6992   -0.1209 C   0  0  0  0  0  0  0  0  0  0  0  0
   -0.0805   -2.3793   -0.4180 C   0  0  0  0  0  0  0  0  0  0  0  0
   -0.9827   -1.3564   -0.0705 C   0  0  0  0  0  0  0  0  0  0  0  0
  1  2  1  0
  2  3  1  0
  3  4  1  0
  4  5  1  0
  5  6  1  0
  6  7  2  0
  6  8  1  0
  8  9  1  0
  9 10  1  0
 10 11  1  0
 11 12  2  0
 11 13  1  0
 13 14  1  0
  9 15  2  0
 15 16  1  0
 16 17  2  0
 17 18  1  0
 18 19  2  0
 19 20  1  0
 20 21  2  0
 21  8  1  0
 21 16  1  0
M  END
>  <target>  (991) 
-4.883

$$$$

     RDKit          3D

 17 18  0  0  0  0  0  0  0  0999 V2000
    4.0852   -0.1943    0.2635 C   0  0  0  0  0  0  0  0  0  0  0  0
    2.8916    0.6379    0.1825 N   0  0  0  0  0  0  0  0  0  0  0  0
    3.1211    2.0643    0.4183 C   0  0  0  0  0  0  0  0  0  0  0  0
    1.6029    0.1143    0.0734 C   0  0  0  0  0  0  0  0  0  0  0  0
    1.1189   -1.0577   -0.3897 C   0  0  0  0  0  0  0  0  0  0  0  0
    1.8995   -2.1633   -1.0274 C   0  0  0  0  0  0  0  0  0  0  0  0
   -0.2732   -1.1983   -0.2724 N   0  0  0  0  0  0  0  0  0  0  0  0
   -0.7712   -2.3668    0.4768 C   0  0  0  0  0  0  0  0  0  0  0  0
   -0.7419    0.0366    0.2407 N   0  0  0  0  0  0  0  0  0  0  0  0
   -2.0816    0.4630    0.0403 C   0  0  0  0  0  0  0  0  0  0  0  0
   -2.9531   -0.2507   -0.7981 C   0  0  0  0  0  0  0  0  0  0  0  0
   -4.2737    0.1663   -0.9945 C   0  0  0  0  0  0  0  0  0  0  0  0
   -4.7455    1.3085   -0.3556 C   0  0  0  0  0  0  0  0  0  0  0  0
   -3.8958    2.0341    0.4738 C   0  0  0  0  0  0  0  0  0  0  0  0
   -2.5747    1.6155    0.6671 C   0  0  0  0  0  0  0  0  0  0  0  0
    0.3517    0.8677    0.5162 C   0  0  0  0  0  0  0  0  0  0  0  0
    0.3573    2.0002    0.9802 O   0  0  0  0  0  0  0  0  0  0  0  0
  1  2  1  0
  2  3  1  0
  2  4  1  0
  4  5  2  0
  5  6  1  0
  5  7  1  0
  7  8  1  0
  7  9  1  0
  9 10  1  0
 10 11  2  0
 11 12  1  0
 12 13  2  0
 13 14  1  0
 14 15  2  0
  9 16  1  0
 16 17  2  0
 15 10  1  0
 16  4  1  0
M  END
>  <target>  (992) 
-0.364

$$$$

     RDKit          3D

  6  5  0  0  0  0  0  0  0  0999 V2000
    2.5588    0.1402    0.3277 C   0  0  0  0  0  0  0  0  0  0  0  0
    1.3373   -0.0472   -0.5630 C   0  0  0  0  0  0  0  0  0  0  0  0
    0.0255    0.0108    0.2277 C   0  0  0  0  0  0  0  0  0  0  0  0
   -0.0926    1.3049    0.8133 O   0  0  0  0  0  0  0  0  0  0  0  0
   -1.1729   -0.2565   -0.6906 C   0  0  0  0  0  0  0  0  0  0  0  0
   -2.4946   -0.3151    0.0639 C   0  0  0  0  0  0  0  0  0  0  0  0
  1  2  1  0
  2  3  1  0
  3  4  1  0
  3  5  1  0
  5  6  1  0
M  END
>  <target>  (993) 
-0.24

$$$$

     RDKit          3D

 10 10  0  0  0  0  0  0  0  0999 V2000
    2.6453   -0.5555    0.3502 C   0  0  0  0  0  0  0  0  0  0  0  0
    1.1930   -0.2246    0.1614 C   0  0  0  0  0  0  0  0  0  0  0  0
    0.3141   -0.2533    1.2530 C   0  0  0  0  0  0  0  0  0  0  0  0
   -1.0440    0.0233    1.0779 C   0  0  0  0  0  0  0  0  0  0  0  0
   -1.5273    0.3207   -0.2022 C   0  0  0  0  0  0  0  0  0  0  0  0
   -0.6626    0.3384   -1.3034 C   0  0  0  0  0  0  0  0  0  0  0  0
    0.6937    0.0603   -1.1171 C   0  0  0  0  0  0  0  0  0  0  0  0
   -2.9534    0.6115   -0.3921 N   0  0  0  0  0  0  0  0  0  0  0  0
   -3.6865    0.5837    0.6071 O   0  0  0  0  0  0  0  0  0  0  0  0
   -3.3425    0.8680   -1.5408 O   0  0  0  0  0  0  0  0  0  0  0  0
  1  2  1  0
  2  3  2  0
  3  4  1  0
  4  5  2  0
  5  6  1  0
  6  7  2  0
  5  8  1  0
  8  9  1  0
  8 10  2  0
  7  2  1  0
M  CHG  2   8   1   9  -1
M  END
>  <target>  (994) 
-2.49

$$$$

     RDKit          3D

  7  6  0  0  0  0  0  0  0  0999 V2000
   -1.4105   -1.4403    0.6380 C   0  0  0  0  0  0  0  0  0  0  0  0
   -1.1626   -0.3800   -0.4358 C   0  0  0  0  0  0  0  0  0  0  0  0
   -2.4528    0.4015   -0.6966 C   0  0  0  0  0  0  0  0  0  0  0  0
   -0.0319    0.5926   -0.0526 C   0  0  0  0  0  0  0  0  0  0  0  0
    1.3333   -0.0830    0.0827 C   0  0  0  0  0  0  0  0  0  0  0  0
    2.4372    0.9357    0.3404 C   0  0  0  0  0  0  0  0  0  0  0  0
    3.6847    0.2694    0.4817 O   0  0  0  0  0  0  0  0  0  0  0  0
  1  2  1  0
  2  3  1  0
  2  4  1  0
  4  5  1  0
  5  6  1  0
  6  7  1  0
M  END
>  <target>  (995) 
-1.14

$$$$

     RDKit          3D

 23 26  0  0  0  0  0  0  0  0999 V2000
    2.2747   -1.8940   -0.5667 C   0  0  0  0  0  0  0  0  0  0  0  0
    2.1350   -0.5303    0.1741 C   0  0  0  0  0  0  0  0  0  0  0  0
    1.4967   -0.7974    1.5491 C   0  0  0  0  0  0  0  0  0  0  0  0
    0.0297   -1.2479    1.4263 C   0  0  0  0  0  0  0  0  0  0  0  0
   -0.8309   -0.2792    0.5795 C   0  0  0  0  0  0  0  0  0  0  0  0
   -0.1684    0.0030   -0.8166 C   0  0  0  0  0  0  0  0  0  0  0  0
   -0.9931    1.0154   -1.6378 C   0  0  0  0  0  0  0  0  0  0  0  0
   -2.4640    0.6069   -1.7597 C   0  0  0  0  0  0  0  0  0  0  0  0
   -3.0151    0.3435   -0.3822 C   0  0  0  0  0  0  0  0  0  0  0  0
   -3.9628    1.1333    0.1513 C   0  0  0  0  0  0  0  0  0  0  0  0
   -4.2938    1.0532    1.5959 C   0  0  0  0  0  0  0  0  0  0  0  0
   -5.1595    1.7921    2.0554 O   0  0  0  0  0  0  0  0  0  0  0  0
   -3.4729    0.1350    2.4697 C   0  0  0  0  0  0  0  0  0  0  0  0
   -3.0591   -1.0962    1.6855 C   0  0  0  0  0  0  0  0  0  0  0  0
   -2.3002   -0.7503    0.3914 C   0  0  0  0  0  0  0  0  0  0  0  0
   -2.2975   -1.9405   -0.4000 O   0  0  0  0  0  0  0  0  0  0  0  0
    1.2623    0.4957   -0.5820 C   0  0  0  0  0  0  0  0  0  0  0  0
    2.1183    0.8750   -1.7880 C   0  0  0  0  0  0  0  0  0  0  0  0
    3.5720    0.7897   -1.2772 C   0  0  0  0  0  0  0  0  0  0  0  0
    3.5054    0.2086    0.1605 C   0  0  0  0  0  0  0  0  0  0  0  0
    4.5823   -0.6894    0.3788 O   0  0  0  0  0  0  0  0  0  0  0  0
    3.6143    1.2991    1.1552 C   0  0  0  0  0  0  0  0  0  0  0  0
    3.7215    2.1843    1.9607 C   0  0  0  0  0  0  0  0  0  0  0  0
  1  2  1  0
  2  3  1  0
  3  4  1  0
  4  5  1  0
  5  6  1  0
  6  7  1  0
  7  8  1  0
  8  9  1  0
  9 10  2  0
 10 11  1  0
 11 12  2  0
 11 13  1  0
 13 14  1  0
 14 15  1  0
 15 16  1  0
  6 17  1  0
 17 18  1  0
 18 19  1  0
 19 20  1  0
 20 21  1  0
 20 22  1  0
 22 23  3  0
 15  5  1  0
 15  9  1  0
 17  2  1  0
 20  2  1  0
M  END
>  <target>  (996) 
-4.57

$$$$

     RDKit          3D

 22 23  0  0  0  0  0  0  0  0999 V2000
    3.7445    0.4840   -0.3491 C   0  0  0  0  0  0  0  0  0  0  0  0
    2.9184    0.0599    0.8588 C   0  0  0  0  0  0  0  0  0  0  0  0
    3.3346   -1.3253    1.3396 C   0  0  0  0  0  0  0  0  0  0  0  0
    1.5425    0.0275    0.4380 O   0  0  0  0  0  0  0  0  0  0  0  0
    0.6022    0.1645    1.4162 C   0  0  0  0  0  0  0  0  0  0  0  0
    0.8551    0.3720    2.6019 O   0  0  0  0  0  0  0  0  0  0  0  0
   -0.8514    0.0735    0.8689 C   0  0  0  0  0  0  0  0  0  0  0  0
   -1.7097   -0.0925    2.0254 O   0  0  0  0  0  0  0  0  0  0  0  0
   -1.3549    1.3689    0.2081 C   0  0  0  0  0  0  0  0  0  0  0  0
   -2.7267    1.4934   -0.1018 C   0  0  0  0  0  0  0  0  0  0  0  0
   -3.2337    2.6423   -0.7136 C   0  0  0  0  0  0  0  0  0  0  0  0
   -2.3745    3.6894   -1.0264 C   0  0  0  0  0  0  0  0  0  0  0  0
   -3.0515    5.2467   -1.8558 Br  0  0  0  0  0  0  0  0  0  0  0  0
   -1.0171    3.5964   -0.7319 C   0  0  0  0  0  0  0  0  0  0  0  0
   -0.5102    2.4447   -0.1190 C   0  0  0  0  0  0  0  0  0  0  0  0
   -1.0135   -1.1708   -0.0235 C   0  0  0  0  0  0  0  0  0  0  0  0
   -1.4107   -2.4056    0.5242 C   0  0  0  0  0  0  0  0  0  0  0  0
   -1.5275   -3.5462   -0.2754 C   0  0  0  0  0  0  0  0  0  0  0  0
   -1.2398   -3.4697   -1.6346 C   0  0  0  0  0  0  0  0  0  0  0  0
   -1.3958   -5.0112   -2.7168 Br  0  0  0  0  0  0  0  0  0  0  0  0
   -0.8337   -2.2653   -2.2010 C   0  0  0  0  0  0  0  0  0  0  0  0
   -0.7173   -1.1255   -1.4003 C   0  0  0  0  0  0  0  0  0  0  0  0
  1  2  1  0
  2  3  1  0
  2  4  1  0
  4  5  1  0
  5  6  2  0
  5  7  1  0
  7  8  1  0
  7  9  1  0
  9 10  2  0
 10 11  1  0
 11 12  2  0
 12 13  1  0
 12 14  1  0
 14 15  2  0
  7 16  1  0
 16 17  2  0
 17 18  1  0
 18 19  2  0
 19 20  1  0
 19 21  1  0
 21 22  2  0
 15  9  1  0
 22 16  1  0
M  END
>  <target>  (997) 
-4.93

$$$$

     RDKit          3D

 15 16  0  0  0  0  0  0  0  0999 V2000
   -4.3617   -0.6306    0.9003 N   0  0  0  0  0  0  0  0  0  0  0  0
   -3.0649   -0.3876    0.4735 C   0  0  0  0  0  0  0  0  0  0  0  0
   -1.9533   -0.8289    1.3384 C   0  0  0  0  0  0  0  0  0  0  0  0
   -0.6930   -0.6730    1.1227 N   0  0  0  0  0  0  0  0  0  0  0  0
   -0.2961   -0.0408   -0.0416 N   0  0  0  0  0  0  0  0  0  0  0  0
    1.1390    0.0783   -0.1644 C   0  0  0  0  0  0  0  0  0  0  0  0
    1.9781   -0.4383    0.8451 C   0  0  0  0  0  0  0  0  0  0  0  0
    3.3728   -0.3443    0.7698 C   0  0  0  0  0  0  0  0  0  0  0  0
    3.9686    0.2723   -0.3221 C   0  0  0  0  0  0  0  0  0  0  0  0
    3.1687    0.7916   -1.3328 C   0  0  0  0  0  0  0  0  0  0  0  0
    1.7718    0.6954   -1.2538 C   0  0  0  0  0  0  0  0  0  0  0  0
   -1.2189    0.4220   -0.9965 C   0  0  0  0  0  0  0  0  0  0  0  0
   -0.9477    0.9802   -2.0596 O   0  0  0  0  0  0  0  0  0  0  0  0
   -2.6616    0.2085   -0.6546 C   0  0  0  0  0  0  0  0  0  0  0  0
   -3.8376    0.7984   -1.7902 Cl  0  0  0  0  0  0  0  0  0  0  0  0
  1  2  1  0
  2  3  1  0
  3  4  2  0
  4  5  1  0
  5  6  1  0
  6  7  2  0
  7  8  1  0
  8  9  2  0
  9 10  1  0
 10 11  2  0
  5 12  1  0
 12 13  2  0
 12 14  1  0
 14 15  1  0
 11  6  1  0
 14  2  2  0
M  END
>  <target>  (998) 
-2.878

$$$$

     RDKit          3D

  6  5  0  0  0  0  0  0  0  0999 V2000
    1.9004    0.4695   -0.7379 C   0  0  0  0  0  0  0  0  0  0  0  0
    0.9232   -0.5419   -0.1495 C   0  0  0  0  0  0  0  0  0  0  0  0
   -0.4204    0.0588    0.3089 C   0  0  0  0  0  0  0  0  0  0  0  0
   -1.1846    0.7194   -0.8394 C   0  0  0  0  0  0  0  0  0  0  0  0
   -1.2881   -1.0300    0.9481 C   0  0  0  0  0  0  0  0  0  0  0  0
   -0.1790    1.0639    1.2958 O   0  0  0  0  0  0  0  0  0  0  0  0
  1  2  1  0
  2  3  1  0
  3  4  1  0
  3  5  1  0
  3  6  1  0
M  END
>  <target>  (999) 
0.15

$$$$

     RDKit          3D

  8  8  0  0  0  0  0  0  0  0999 V2000
    2.4678   -0.1204   -0.1081 C   0  0  0  0  0  0  0  0  0  0  0  0
    0.9739   -0.0312   -0.0057 C   0  0  0  0  0  0  0  0  0  0  0  0
    0.3692    1.0922    0.5731 C   0  0  0  0  0  0  0  0  0  0  0  0
   -1.0216    1.1892    0.6399 C   0  0  0  0  0  0  0  0  0  0  0  0
   -1.8089    0.1698    0.1195 C   0  0  0  0  0  0  0  0  0  0  0  0
   -3.1631    0.3052    0.2053 O   0  0  0  0  0  0  0  0  0  0  0  0
   -1.2281   -0.9471   -0.4719 C   0  0  0  0  0  0  0  0  0  0  0  0
    0.1640   -1.0434   -0.5384 C   0  0  0  0  0  0  0  0  0  0  0  0
  1  2  1  0
  2  3  2  0
  3  4  1  0
  4  5  2  0
  5  6  1  0
  5  7  1  0
  7  8  2  0
  8  2  1  0
M  END
>  <target>  (1000) 
-0.73

$$$$

     RDKit          3D

  5  4  0  0  0  0  0  0  0  0999 V2000
   -1.5850    0.3401   -0.0986 C   0  0  0  0  0  0  0  0  0  0  0  0
   -0.2263   -0.2644    0.1975 C   0  0  0  0  0  0  0  0  0  0  0  0
    0.7449    0.3897   -0.6278 O   0  0  0  0  0  0  0  0  0  0  0  0
    2.0108   -0.0647   -0.4559 C   0  0  0  0  0  0  0  0  0  0  0  0
    2.3720   -0.9442    0.3089 O   0  0  0  0  0  0  0  0  0  0  0  0
  1  2  1  0
  2  3  1  0
  3  4  1  0
  4  5  2  0
M  END
>  <target>  (1001) 
0.15

$$$$

     RDKit          3D

  9  9  0  0  0  0  0  0  0  0999 V2000
   -2.1789   -0.9953   -0.3678 C   0  0  0  0  0  0  0  0  0  0  0  0
   -1.3278    0.0706    0.1574 N   0  0  0  0  0  0  0  0  0  0  0  0
   -1.9333    1.4004    0.1948 C   0  0  0  0  0  0  0  0  0  0  0  0
    0.0614   -0.0362    0.0056 C   0  0  0  0  0  0  0  0  0  0  0  0
    0.6872   -1.2530   -0.3240 C   0  0  0  0  0  0  0  0  0  0  0  0
    2.0777   -1.3688   -0.4613 C   0  0  0  0  0  0  0  0  0  0  0  0
    2.8933   -0.2640   -0.2605 C   0  0  0  0  0  0  0  0  0  0  0  0
    2.3155    0.9501    0.0832 C   0  0  0  0  0  0  0  0  0  0  0  0
    0.9239    1.0555    0.2181 C   0  0  0  0  0  0  0  0  0  0  0  0
  1  2  1  0
  2  3  1  0
  2  4  1  0
  4  5  2  0
  5  6  1  0
  6  7  2  0
  7  8  1  0
  8  9  2  0
  9  4  1  0
M  END
>  <target>  (1002) 
-1.92

$$$$

     RDKit          3D

 10 11  0  0  0  0  0  0  0  0999 V2000
    2.5708   -0.3433    0.5004 C   0  0  0  0  0  0  0  0  0  0  0  0
    2.3644    1.1490    0.2577 C   0  0  0  0  0  0  0  0  0  0  0  0
    0.9441    1.5897    0.6057 C   0  0  0  0  0  0  0  0  0  0  0  0
   -0.1009    0.7511   -0.1416 C   0  0  0  0  0  0  0  0  0  0  0  0
   -1.5252    1.1866    0.2264 C   0  0  0  0  0  0  0  0  0  0  0  0
   -2.5708    0.3433   -0.5004 C   0  0  0  0  0  0  0  0  0  0  0  0
   -2.3644   -1.1490   -0.2577 C   0  0  0  0  0  0  0  0  0  0  0  0
   -0.9441   -1.5897   -0.6057 C   0  0  0  0  0  0  0  0  0  0  0  0
    0.1009   -0.7511    0.1416 C   0  0  0  0  0  0  0  0  0  0  0  0
    1.5252   -1.1866   -0.2264 C   0  0  0  0  0  0  0  0  0  0  0  0
  1  2  1  0
  2  3  1  0
  3  4  1  0
  4  5  1  0
  5  6  1  0
  6  7  1  0
  7  8  1  0
  8  9  1  0
  9 10  1  0
 10  1  1  0
  9  4  1  0
M  END
>  <target>  (1003) 
-5.19

$$$$

     RDKit          3D

  5  4  0  0  0  0  0  0  0  0999 V2000
   -2.0273    0.6907    0.0303 C   0  0  0  0  0  0  0  0  0  0  0  0
   -0.7705   -0.0703   -0.3611 C   0  0  0  0  0  0  0  0  0  0  0  0
    0.2851   -0.0169    0.7451 C   0  0  0  0  0  0  0  0  0  0  0  0
    1.5401   -0.7842    0.3386 C   0  0  0  0  0  0  0  0  0  0  0  0
    2.7860   -0.7216    1.6580 S   0  0  0  0  0  0  0  0  0  0  0  0
  1  2  1  0
  2  3  1  0
  3  4  1  0
  4  5  1  0
M  END
>  <target>  (1004) 
-2.18

$$$$

     RDKit          3D

 20 24  0  0  0  0  0  0  0  0999 V2000
    3.3995   -2.2892   -0.1563 C   0  0  0  0  0  0  0  0  0  0  0  0
    3.9655   -1.0465    0.0295 C   0  0  0  0  0  0  0  0  0  0  0  0
    3.1384    0.0703    0.1405 C   0  0  0  0  0  0  0  0  0  0  0  0
    1.7195   -0.0046    0.0714 C   0  0  0  0  0  0  0  0  0  0  0  0
    1.1349   -1.2882   -0.1205 C   0  0  0  0  0  0  0  0  0  0  0  0
    2.0119   -2.4029   -0.2292 C   0  0  0  0  0  0  0  0  0  0  0  0
   -0.2925   -1.4209   -0.1976 C   0  0  0  0  0  0  0  0  0  0  0  0
   -0.9597   -2.6599   -0.3871 C   0  0  0  0  0  0  0  0  0  0  0  0
   -2.3482   -2.7649   -0.4589 C   0  0  0  0  0  0  0  0  0  0  0  0
   -3.1287   -1.6276   -0.3432 C   0  0  0  0  0  0  0  0  0  0  0  0
   -2.5277   -0.3815   -0.1556 C   0  0  0  0  0  0  0  0  0  0  0  0
   -3.3326    0.7537   -0.0412 C   0  0  0  0  0  0  0  0  0  0  0  0
   -2.7619    2.0066    0.1461 C   0  0  0  0  0  0  0  0  0  0  0  0
   -1.3751    2.1491    0.2227 C   0  0  0  0  0  0  0  0  0  0  0  0
   -0.8295    3.4203    0.4114 C   0  0  0  0  0  0  0  0  0  0  0  0
    0.5429    3.5826    0.4900 C   0  0  0  0  0  0  0  0  0  0  0  0
    1.3773    2.4708    0.3799 C   0  0  0  0  0  0  0  0  0  0  0  0
    0.8806    1.1545    0.1874 C   0  0  0  0  0  0  0  0  0  0  0  0
   -0.5271    1.0093    0.1096 C   0  0  0  0  0  0  0  0  0  0  0  0
   -1.1090   -0.2682   -0.0814 C   0  0  0  0  0  0  0  0  0  0  0  0
  1  2  2  0
  2  3  1  0
  3  4  2  0
  4  5  1  0
  5  6  2  0
  5  7  1  0
  7  8  2  0
  8  9  1  0
  9 10  2  0
 10 11  1  0
 11 12  2  0
 12 13  1  0
 13 14  2  0
 14 15  1  0
 15 16  2  0
 16 17  1  0
 17 18  2  0
 18 19  1  0
 19 20  2  0
  6  1  1  0
 18  4  1  0
 20  7  1  0
 20 11  1  0
 19 14  1  0
M  END
>  <target>  (1005) 
-7.8

$$$$

     RDKit          3D

  6  5  0  0  0  0  0  0  0  0999 V2000
   -1.6616    1.4009    0.0905 Cl  0  0  0  0  0  0  0  0  0  0  0  0
   -0.6711   -0.0223   -0.0296 C   0  0  0  0  0  0  0  0  0  0  0  0
    0.6711    0.0223    0.0296 C   0  0  0  0  0  0  0  0  0  0  0  0
    1.5508    1.5076    0.2320 Cl  0  0  0  0  0  0  0  0  0  0  0  0
    1.6616   -1.4009   -0.0905 Cl  0  0  0  0  0  0  0  0  0  0  0  0
   -1.5508   -1.5076   -0.2320 Cl  0  0  0  0  0  0  0  0  0  0  0  0
  1  2  1  0
  2  3  2  3
  3  4  1  0
  3  5  1  0
  2  6  1  0
M  END
>  <target>  (1006) 
-2.54

$$$$

     RDKit          3D

  6  5  0  0  0  0  0  0  0  0999 V2000
    2.5477    0.0787   -0.0761 C   0  0  0  0  0  0  0  0  0  0  0  0
    1.1988   -0.4281    0.4015 C   0  0  0  0  0  0  0  0  0  0  0  0
    0.0372    0.1808   -0.3664 C   0  0  0  0  0  0  0  0  0  0  0  0
    0.2047    0.9949   -1.2731 O   0  0  0  0  0  0  0  0  0  0  0  0
   -1.3453   -0.2837    0.0611 C   0  0  0  0  0  0  0  0  0  0  0  0
   -2.4568    0.3628   -0.7457 C   0  0  0  0  0  0  0  0  0  0  0  0
  1  2  1  0
  2  3  1  0
  3  4  2  0
  3  5  1  0
  5  6  1  0
M  END
>  <target>  (1007) 
-0.28

$$$$

     RDKit          3D

  4  3  0  0  0  0  0  0  0  0999 V2000
   -0.9971   -0.3244    0.0268 C   0  0  0  0  0  0  0  0  0  0  0  0
    0.0679    0.4770   -0.1000 C   0  0  0  0  0  0  0  0  0  0  0  0
    1.4000    0.0072    0.0591 C   0  0  0  0  0  0  0  0  0  0  0  0
    2.4884   -0.3716    0.1880 N   0  0  0  0  0  0  0  0  0  0  0  0
  1  2  2  0
  2  3  1  0
  3  4  3  0
M  END
>  <target>  (1008) 
0.15

$$$$

     RDKit          3D

 29 32  0  0  0  0  0  0  0  0999 V2000
   -3.4849   -2.2533   -1.4728 C   0  0  0  0  0  0  0  0  0  0  0  0
   -2.5100   -1.1442   -1.0883 C   0  0  0  0  0  0  0  0  0  0  0  0
   -1.1185   -1.7014   -0.7276 C   0  0  0  0  0  0  0  0  0  0  0  0
   -0.6699   -0.9749    0.5549 C   0  0  0  0  0  0  0  0  0  0  0  0
    0.8481   -0.7262    0.7094 C   0  0  0  0  0  0  0  0  0  0  0  0
    1.6321   -2.0373    0.5504 C   0  0  0  0  0  0  0  0  0  0  0  0
    3.1101   -1.8468    0.8527 C   0  0  0  0  0  0  0  0  0  0  0  0
    3.7293   -3.0451    0.6528 F   0  0  0  0  0  0  0  0  0  0  0  0
    3.6942   -0.7680   -0.0215 C   0  0  0  0  0  0  0  0  0  0  0  0
    4.7464   -1.0414   -0.8165 C   0  0  0  0  0  0  0  0  0  0  0  0
    5.3292   -0.0370   -1.7261 C   0  0  0  0  0  0  0  0  0  0  0  0
    6.3108   -0.2852   -2.4138 O   0  0  0  0  0  0  0  0  0  0  0  0
    4.6728    1.2817   -1.7671 C   0  0  0  0  0  0  0  0  0  0  0  0
    3.6249    1.5603   -0.9790 C   0  0  0  0  0  0  0  0  0  0  0  0
    2.9896    0.6051    0.0341 C   0  0  0  0  0  0  0  0  0  0  0  0
    3.2714    1.2381    1.4187 C   0  0  0  0  0  0  0  0  0  0  0  0
    1.4232    0.3976   -0.2059 C   0  0  0  0  0  0  0  0  0  0  0  0
    1.2746   -0.0265   -1.5079 F   0  0  0  0  0  0  0  0  0  0  0  0
    0.5411    1.6708   -0.0629 C   0  0  0  0  0  0  0  0  0  0  0  0
    0.9104    2.6834   -1.0006 O   0  0  0  0  0  0  0  0  0  0  0  0
   -0.9522    1.3900   -0.2985 C   0  0  0  0  0  0  0  0  0  0  0  0
   -1.5474    0.3002    0.6232 C   0  0  0  0  0  0  0  0  0  0  0  0
   -1.6158    0.8331    2.0688 C   0  0  0  0  0  0  0  0  0  0  0  0
   -2.9270   -0.2586    0.1181 C   0  0  0  0  0  0  0  0  0  0  0  0
   -3.4923   -1.0827    1.1427 O   0  0  0  0  0  0  0  0  0  0  0  0
   -3.9341    0.8452   -0.2881 C   0  0  0  0  0  0  0  0  0  0  0  0
   -3.9823    1.3179   -1.4282 O   0  0  0  0  0  0  0  0  0  0  0  0
   -4.9140    1.3334    0.7764 C   0  0  0  0  0  0  0  0  0  0  0  0
   -5.5992    2.5081    0.3641 O   0  0  0  0  0  0  0  0  0  0  0  0
  1  2  1  0
  2  3  1  0
  3  4  1  0
  4  5  1  0
  5  6  1  0
  6  7  1  0
  7  8  1  0
  7  9  1  0
  9 10  2  0
 10 11  1  0
 11 12  2  0
 11 13  1  0
 13 14  2  0
 14 15  1  0
 15 16  1  0
 15 17  1  0
 17 18  1  0
 17 19  1  0
 19 20  1  0
 19 21  1  0
 21 22  1  0
 22 23  1  0
 22 24  1  0
 24 25  1  0
 24 26  1  0
 26 27  2  0
 26 28  1  0
 28 29  1  0
 24  2  1  0
 22  4  1  0
 17  5  1  0
 15  9  1  0
M  END
>  <target>  (1009) 
-5.6129999999999995

$$$$

     RDKit          3D

  7  6  0  0  0  0  0  0  0  0999 V2000
    3.0589   -0.3491    0.4861 C   0  0  0  0  0  0  0  0  0  0  0  0
    1.8043    0.2355   -0.1430 C   0  0  0  0  0  0  0  0  0  0  0  0
    0.5399   -0.3009    0.5267 C   0  0  0  0  0  0  0  0  0  0  0  0
   -0.7177    0.2884   -0.1078 C   0  0  0  0  0  0  0  0  0  0  0  0
   -1.9919   -0.2269    0.5379 C   0  0  0  0  0  0  0  0  0  0  0  0
   -1.9910   -1.0306    1.4689 O   0  0  0  0  0  0  0  0  0  0  0  0
   -3.2835    0.3042   -0.0279 C   0  0  0  0  0  0  0  0  0  0  0  0
  1  2  1  0
  2  3  1  0
  3  4  1  0
  4  5  1  0
  5  6  2  0
  5  7  1  0
M  END
>  <target>  (1010) 
-0.8

$$$$

     RDKit          3D

 16 16  0  0  0  0  0  0  0  0999 V2000
    4.2308   -0.8001   -1.8733 C   0  0  0  0  0  0  0  0  0  0  0  0
    3.4545   -0.1449   -0.7417 C   0  0  0  0  0  0  0  0  0  0  0  0
    2.0355   -0.1882   -1.0449 N   0  0  0  0  0  0  0  0  0  0  0  0
    1.2127    0.3128   -0.0409 C   0  0  0  0  0  0  0  0  0  0  0  0
    0.0521   -0.3101    0.1037 N   0  0  0  0  0  0  0  0  0  0  0  0
   -0.7539    0.1539    1.0477 C   0  0  0  0  0  0  0  0  0  0  0  0
   -1.9824   -0.4318    1.2939 N   0  0  0  0  0  0  0  0  0  0  0  0
   -2.7941   -1.0158    0.2211 C   0  0  0  0  0  0  0  0  0  0  0  0
   -2.1854   -2.3275   -0.2960 C   0  0  0  0  0  0  0  0  0  0  0  0
   -4.1659   -1.3501    0.8455 C   0  0  0  0  0  0  0  0  0  0  0  0
   -3.0193   -0.0203   -0.9263 C   0  0  0  0  0  0  0  0  0  0  0  0
   -0.4626    1.1798    1.8288 N   0  0  0  0  0  0  0  0  0  0  0  0
    0.7198    1.7334    1.6019 C   0  0  0  0  0  0  0  0  0  0  0  0
    1.0108    2.8042    2.4226 O   0  0  0  0  0  0  0  0  0  0  0  0
    2.2537    3.4224    2.1179 C   0  0  0  0  0  0  0  0  0  0  0  0
    1.6012    1.3447    0.6899 N   0  0  0  0  0  0  0  0  0  0  0  0
  1  2  1  0
  2  3  1  0
  3  4  1  0
  4  5  2  0
  5  6  1  0
  6  7  1  0
  7  8  1  0
  8  9  1  0
  8 10  1  0
  8 11  1  0
  6 12  2  0
 12 13  1  0
 13 14  1  0
 14 15  1  0
 13 16  2  0
 16  4  1  0
M  END
>  <target>  (1011) 
-3.239

$$$$

     RDKit          3D

  8  7  0  0  0  0  0  0  0  0999 V2000
    3.7546    0.4800    0.8945 C   0  0  0  0  0  0  0  0  0  0  0  0
    2.6051   -0.5128    0.8267 C   0  0  0  0  0  0  0  0  0  0  0  0
    1.3353    0.1366    0.2733 C   0  0  0  0  0  0  0  0  0  0  0  0
    0.1802   -0.8680    0.2142 C   0  0  0  0  0  0  0  0  0  0  0  0
   -1.0885   -0.3208   -0.4764 C   0  0  0  0  0  0  0  0  0  0  0  0
   -2.0912   -1.4674   -0.6536 C   0  0  0  0  0  0  0  0  0  0  0  0
   -1.7031    0.8582    0.3043 C   0  0  0  0  0  0  0  0  0  0  0  0
   -2.9475    1.4474   -0.3470 C   0  0  0  0  0  0  0  0  0  0  0  0
  1  2  1  0
  2  3  1  0
  3  4  1  0
  4  5  1  0
  5  6  1  0
  5  7  1  0
  7  8  1  0
M  END
>  <target>  (1012) 
-5.16

$$$$

     RDKit          3D

  4  3  0  0  0  0  0  0  0  0999 V2000
    2.1426   -0.8193   -0.2886 Br  0  0  0  0  0  0  0  0  0  0  0  0
    0.6503    0.3693    0.1018 C   0  0  0  0  0  0  0  0  0  0  0  0
   -0.6503   -0.3693   -0.1018 C   0  0  0  0  0  0  0  0  0  0  0  0
   -2.1426    0.8193    0.2886 Br  0  0  0  0  0  0  0  0  0  0  0  0
  1  2  1  0
  2  3  1  0
  3  4  1  0
M  END
>  <target>  (1013) 
-1.68

$$$$

     RDKit          3D

 14 14  0  0  0  0  0  0  0  0999 V2000
    3.8243   -1.6087   -1.1399 C   0  0  0  0  0  0  0  0  0  0  0  0
    3.0302   -1.1563   -0.0310 N   0  0  0  0  0  0  0  0  0  0  0  0
    2.0682   -0.1938   -0.1746 C   0  0  0  0  0  0  0  0  0  0  0  0
    1.8653    0.4338   -1.2047 O   0  0  0  0  0  0  0  0  0  0  0  0
    1.3722   -0.0718    1.0170 O   0  0  0  0  0  0  0  0  0  0  0  0
    0.3556    0.8902    0.9773 C   0  0  0  0  0  0  0  0  0  0  0  0
    0.7029    2.2131    1.2668 C   0  0  0  0  0  0  0  0  0  0  0  0
   -0.2831    3.1952    1.2775 C   0  0  0  0  0  0  0  0  0  0  0  0
   -1.6062    2.8498    1.0106 C   0  0  0  0  0  0  0  0  0  0  0  0
   -1.9479    1.5207    0.7399 C   0  0  0  0  0  0  0  0  0  0  0  0
   -0.9731    0.5083    0.7307 C   0  0  0  0  0  0  0  0  0  0  0  0
   -1.3482   -0.9344    0.4395 C   0  0  0  0  0  0  0  0  0  0  0  0
   -1.7854   -1.1048   -1.0176 C   0  0  0  0  0  0  0  0  0  0  0  0
   -2.4266   -1.4541    1.3957 C   0  0  0  0  0  0  0  0  0  0  0  0
  1  2  1  0
  2  3  1  0
  3  4  2  0
  3  5  1  0
  5  6  1  0
  6  7  2  0
  7  8  1  0
  8  9  2  0
  9 10  1  0
 10 11  2  0
 11 12  1  0
 12 13  1  0
 12 14  1  0
 11  6  1  0
M  END
>  <target>  (1014) 
-2.863

$$$$

     RDKit          3D

 14 15  0  0  0  0  0  0  0  0999 V2000
   -0.7424    2.3726   -0.9563 O   0  0  0  0  0  0  0  0  0  0  0  0
   -1.3248    1.4084   -0.4916 C   0  0  0  0  0  0  0  0  0  0  0  0
   -2.7166    1.3520   -0.4206 N   0  0  0  0  0  0  0  0  0  0  0  0
   -3.1536    0.0259   -0.0964 C   0  0  0  0  0  0  0  0  0  0  0  0
   -1.9159   -0.6212    0.5010 C   0  0  0  0  0  0  0  0  0  0  0  0
   -0.8282    0.2072    0.0283 N   0  0  0  0  0  0  0  0  0  0  0  0
    0.5002   -0.1271    0.1721 C   0  0  0  0  0  0  0  0  0  0  0  0
    0.8931   -1.2567    0.7288 N   0  0  0  0  0  0  0  0  0  0  0  0
    2.2759   -1.3197    0.7329 C   0  0  0  0  0  0  0  0  0  0  0  0
    2.8975   -0.2319    0.1714 C   0  0  0  0  0  0  0  0  0  0  0  0
    1.7581    0.8973   -0.3753 S   0  0  0  0  0  0  0  0  0  0  0  0
    4.3025   -0.0223    0.0358 N   0  0  0  0  0  0  0  0  0  0  0  0
    4.6932    1.0189   -0.5050 O   0  0  0  0  0  0  0  0  0  0  0  0
    5.0332   -0.9189    0.4785 O   0  0  0  0  0  0  0  0  0  0  0  0
  1  2  2  0
  2  3  1  0
  3  4  1  0
  4  5  1  0
  5  6  1  0
  6  7  1  0
  7  8  2  0
  8  9  1  0
  9 10  2  0
 10 11  1  0
 10 12  1  0
 12 13  1  0
 12 14  2  0
  6  2  1  0
 11  7  1  0
M  CHG  2  12   1  13  -1
M  END
>  <target>  (1015) 
-3.22

$$$$

     RDKit          3D

 17 20  0  0  0  0  0  0  0  0999 V2000
   -0.6874   -1.5062   -0.2920 C   0  0  0  0  0  0  0  0  0  0  0  0
   -2.0428   -0.8327   -0.2672 C   0  0  0  0  0  0  0  0  0  0  0  0
   -3.2893   -1.4103   -0.4418 C   0  0  0  0  0  0  0  0  0  0  0  0
   -4.4100   -0.5804   -0.3763 C   0  0  0  0  0  0  0  0  0  0  0  0
   -4.2710    0.7978   -0.1403 C   0  0  0  0  0  0  0  0  0  0  0  0
   -3.0077    1.3720    0.0347 C   0  0  0  0  0  0  0  0  0  0  0  0
   -1.8956    0.5496   -0.0301 C   0  0  0  0  0  0  0  0  0  0  0  0
   -0.4861    0.8501    0.1092 C   0  0  0  0  0  0  0  0  0  0  0  0
    0.1532    2.0524    0.3480 C   0  0  0  0  0  0  0  0  0  0  0  0
    1.5490    2.0581    0.4378 C   0  0  0  0  0  0  0  0  0  0  0  0
    2.3066    0.8737    0.2908 C   0  0  0  0  0  0  0  0  0  0  0  0
    3.7071    0.8958    0.3836 C   0  0  0  0  0  0  0  0  0  0  0  0
    4.4546   -0.2744    0.2383 C   0  0  0  0  0  0  0  0  0  0  0  0
    3.8133   -1.4855   -0.0022 C   0  0  0  0  0  0  0  0  0  0  0  0
    2.4222   -1.5304   -0.0981 C   0  0  0  0  0  0  0  0  0  0  0  0
    1.6537   -0.3594    0.0460 C   0  0  0  0  0  0  0  0  0  0  0  0
    0.2574   -0.3435   -0.0402 C   0  0  0  0  0  0  0  0  0  0  0  0
  1  2  1  0
  2  3  2  0
  3  4  1  0
  4  5  2  0
  5  6  1  0
  6  7  2  0
  7  8  1  0
  8  9  2  0
  9 10  1  0
 10 11  2  0
 11 12  1  0
 12 13  2  0
 13 14  1  0
 14 15  2  0
 15 16  1  0
 16 17  2  0
 17  1  1  0
  7  2  1  0
 17  8  1  0
 16 11  1  0
M  END
>  <target>  (1016) 
-6.68

$$$$

     RDKit          3D

  9  9  0  0  0  0  0  0  0  0999 V2000
    2.6858   -0.1961   -0.2001 C   0  0  0  0  0  0  0  0  0  0  0  0
    1.6744    0.8018   -0.2141 O   0  0  0  0  0  0  0  0  0  0  0  0
    0.3732    0.3917   -0.0807 C   0  0  0  0  0  0  0  0  0  0  0  0
   -0.0274   -0.9411    0.0683 C   0  0  0  0  0  0  0  0  0  0  0  0
   -1.3824   -1.2658    0.1981 C   0  0  0  0  0  0  0  0  0  0  0  0
   -2.3506   -0.2648    0.1805 C   0  0  0  0  0  0  0  0  0  0  0  0
   -1.9660    1.0661    0.0329 C   0  0  0  0  0  0  0  0  0  0  0  0
   -0.6125    1.3928   -0.0970 C   0  0  0  0  0  0  0  0  0  0  0  0
   -0.1995    3.0635   -0.2771 Cl  0  0  0  0  0  0  0  0  0  0  0  0
  1  2  1  0
  2  3  1  0
  3  4  2  0
  4  5  1  0
  5  6  2  0
  6  7  1  0
  7  8  2  0
  8  9  1  0
  8  3  1  0
M  END
>  <target>  (1017) 
-2.46

$$$$

     RDKit          3D

 16 16  0  0  0  0  0  0  0  0999 V2000
    3.0414    0.6172    1.9718 C   0  0  0  0  0  0  0  0  0  0  0  0
    2.6739    0.4757    0.6140 O   0  0  0  0  0  0  0  0  0  0  0  0
    1.4348   -0.5017    0.2487 P   0  0  0  0  0  0  0  0  0  0  0  0
    1.6622   -2.3762    0.6927 S   0  0  0  0  0  0  0  0  0  0  0  0
    1.2145   -0.1559   -1.3179 O   0  0  0  0  0  0  0  0  0  0  0  0
    2.2495   -0.4682   -2.2282 C   0  0  0  0  0  0  0  0  0  0  0  0
    0.1951    0.2727    0.9576 O   0  0  0  0  0  0  0  0  0  0  0  0
   -1.0838    0.1284    0.4926 C   0  0  0  0  0  0  0  0  0  0  0  0
   -1.8296   -0.9873    0.8704 C   0  0  0  0  0  0  0  0  0  0  0  0
   -3.1440   -1.1320    0.4148 C   0  0  0  0  0  0  0  0  0  0  0  0
   -4.0087   -2.5416    0.9133 Cl  0  0  0  0  0  0  0  0  0  0  0  0
   -3.7101   -0.1496   -0.4084 C   0  0  0  0  0  0  0  0  0  0  0  0
   -5.4860   -0.2675   -1.0718 Br  0  0  0  0  0  0  0  0  0  0  0  0
   -2.9647    0.9791   -0.7659 C   0  0  0  0  0  0  0  0  0  0  0  0
   -1.6546    1.1208   -0.3086 C   0  0  0  0  0  0  0  0  0  0  0  0
   -0.7745    2.5399   -0.7405 Cl  0  0  0  0  0  0  0  0  0  0  0  0
  1  2  1  0
  2  3  1  0
  3  4  2  0
  3  5  1  0
  5  6  1  0
  3  7  1  0
  7  8  1  0
  8  9  2  0
  9 10  1  0
 10 11  1  0
 10 12  2  0
 12 13  1  0
 12 14  1  0
 14 15  2  0
 15 16  1  0
 15  8  1  0
M  END
>  <target>  (1018) 
-6.09

$$$$

     RDKit          3D

 20 21  0  0  0  0  0  0  0  0999 V2000
    6.6786    0.1776   -0.3094 Cl  0  0  0  0  0  0  0  0  0  0  0  0
    5.1422   -0.3039    0.4740 C   0  0  0  0  0  0  0  0  0  0  0  0
    5.1314    0.3647    2.1329 Cl  0  0  0  0  0  0  0  0  0  0  0  0
    3.9730    0.2361   -0.3348 C   0  0  0  0  0  0  0  0  0  0  0  0
    2.6756   -0.4248    0.0705 C   0  0  0  0  0  0  0  0  0  0  0  0
    2.6350   -1.4320    0.7660 O   0  0  0  0  0  0  0  0  0  0  0  0
    1.5666    0.2312   -0.4369 N   0  0  0  0  0  0  0  0  0  0  0  0
    0.2436   -0.1777   -0.2924 C   0  0  0  0  0  0  0  0  0  0  0  0
   -0.2510   -1.4193   -0.4351 C   0  0  0  0  0  0  0  0  0  0  0  0
    0.6841   -2.7582   -1.0257 Cl  0  0  0  0  0  0  0  0  0  0  0  0
   -1.6997   -1.7192   -0.2365 C   0  0  0  0  0  0  0  0  0  0  0  0
   -2.1712   -2.8416   -0.3843 O   0  0  0  0  0  0  0  0  0  0  0  0
   -2.5911   -0.6095    0.1452 C   0  0  0  0  0  0  0  0  0  0  0  0
   -3.9475   -0.8617    0.3962 C   0  0  0  0  0  0  0  0  0  0  0  0
   -4.8038    0.1858    0.7401 C   0  0  0  0  0  0  0  0  0  0  0  0
   -4.3115    1.4865    0.8320 C   0  0  0  0  0  0  0  0  0  0  0  0
   -2.9623    1.7403    0.5813 C   0  0  0  0  0  0  0  0  0  0  0  0
   -2.1025    0.6876    0.2386 C   0  0  0  0  0  0  0  0  0  0  0  0
   -0.6843    0.9639   -0.0258 C   0  0  0  0  0  0  0  0  0  0  0  0
   -0.2476    2.1129   -0.0265 O   0  0  0  0  0  0  0  0  0  0  0  0
  1  2  1  0
  2  3  1  0
  2  4  1  0
  4  5  1  0
  5  6  2  0
  5  7  1  0
  7  8  1  0
  8  9  2  0
  9 10  1  0
  9 11  1  0
 11 12  2  0
 11 13  1  0
 13 14  2  0
 14 15  1  0
 15 16  2  0
 16 17  1  0
 17 18  2  0
 18 19  1  0
 19 20  2  0
 18 13  1  0
 19  8  1  0
M  END
>  <target>  (1019) 
-5.03

$$$$

     RDKit          3D

 18 19  0  0  0  0  0  0  0  0999 V2000
   -1.5275    3.4503    0.3101 Cl  0  0  0  0  0  0  0  0  0  0  0  0
   -0.0952    2.4352    0.6964 C   0  0  0  0  0  0  0  0  0  0  0  0
    1.3489    3.4981    0.5912 Cl  0  0  0  0  0  0  0  0  0  0  0  0
    0.0176    1.2114   -0.2561 C   0  0  0  0  0  0  0  0  0  0  0  0
   -1.2331    0.3243   -0.2443 C   0  0  0  0  0  0  0  0  0  0  0  0
   -1.9065    0.0592   -1.4500 C   0  0  0  0  0  0  0  0  0  0  0  0
   -3.0458   -0.7492   -1.4691 C   0  0  0  0  0  0  0  0  0  0  0  0
   -3.5204   -1.3044   -0.2845 C   0  0  0  0  0  0  0  0  0  0  0  0
   -4.9223   -2.3010   -0.3074 Cl  0  0  0  0  0  0  0  0  0  0  0  0
   -2.8645   -1.0594    0.9188 C   0  0  0  0  0  0  0  0  0  0  0  0
   -1.7250   -0.2504    0.9401 C   0  0  0  0  0  0  0  0  0  0  0  0
    1.2715    0.3488   -0.0598 C   0  0  0  0  0  0  0  0  0  0  0  0
    1.9212   -0.1775   -1.1918 C   0  0  0  0  0  0  0  0  0  0  0  0
    3.0556   -0.9820   -1.0587 C   0  0  0  0  0  0  0  0  0  0  0  0
    3.5497   -1.2757    0.2081 C   0  0  0  0  0  0  0  0  0  0  0  0
    4.9455   -2.2669    0.3748 Cl  0  0  0  0  0  0  0  0  0  0  0  0
    2.9166   -0.7746    1.3421 C   0  0  0  0  0  0  0  0  0  0  0  0
    1.7807    0.0301    1.2105 C   0  0  0  0  0  0  0  0  0  0  0  0
  1  2  1  0
  2  3  1  0
  2  4  1  0
  4  5  1  0
  5  6  2  0
  6  7  1  0
  7  8  2  0
  8  9  1  0
  8 10  1  0
 10 11  2  0
  4 12  1  0
 12 13  2  0
 13 14  1  0
 14 15  2  0
 15 16  1  0
 15 17  1  0
 17 18  2  0
 11  5  1  0
 18 12  1  0
M  END
>  <target>  (1020) 
-7.2

$$$$

     RDKit          3D

  6  5  0  0  0  0  0  0  0  0999 V2000
   -2.1896    0.4928    0.1473 C   0  0  0  0  0  0  0  0  0  0  0  0
   -0.9479   -0.1015    0.5261 O   0  0  0  0  0  0  0  0  0  0  0  0
    0.0500    0.1060   -0.3686 C   0  0  0  0  0  0  0  0  0  0  0  0
   -0.0267    0.7274   -1.4152 O   0  0  0  0  0  0  0  0  0  0  0  0
    1.2671   -0.5578    0.1448 C   0  0  0  0  0  0  0  0  0  0  0  0
    2.4150   -0.5140   -0.5431 C   0  0  0  0  0  0  0  0  0  0  0  0
  1  2  1  0
  2  3  1  0
  3  4  2  0
  3  5  1  0
  5  6  2  0
M  END
>  <target>  (1021) 
-0.22

$$$$

     RDKit          3D

 20 21  0  0  0  0  0  0  0  0999 V2000
   -5.2893   -0.9772    0.2957 C   0  0  0  0  0  0  0  0  0  0  0  0
   -4.6271    0.2959    0.5499 N   0  0  0  0  0  0  0  0  0  0  0  0
   -5.4962    1.4610    0.5255 C   0  0  0  0  0  0  0  0  0  0  0  0
   -3.2694    0.5222    0.2954 C   0  0  0  0  0  0  0  0  0  0  0  0
   -2.8455    1.6377    0.0040 O   0  0  0  0  0  0  0  0  0  0  0  0
   -2.4819   -0.5986    0.4421 N   0  0  0  0  0  0  0  0  0  0  0  0
   -1.1199   -0.7340    0.1058 C   0  0  0  0  0  0  0  0  0  0  0  0
   -0.4434   -1.8586    0.5966 C   0  0  0  0  0  0  0  0  0  0  0  0
    0.9059   -2.0644    0.2957 C   0  0  0  0  0  0  0  0  0  0  0  0
    1.5895   -1.1421   -0.4929 C   0  0  0  0  0  0  0  0  0  0  0  0
    2.9067   -1.4134   -0.7793 O   0  0  0  0  0  0  0  0  0  0  0  0
    3.8202   -0.3968   -0.6111 C   0  0  0  0  0  0  0  0  0  0  0  0
    3.8065    0.4733    0.4836 C   0  0  0  0  0  0  0  0  0  0  0  0
    4.7916    1.4567    0.6019 C   0  0  0  0  0  0  0  0  0  0  0  0
    5.7932    1.5545   -0.3638 C   0  0  0  0  0  0  0  0  0  0  0  0
    7.0049    2.7668   -0.2164 Cl  0  0  0  0  0  0  0  0  0  0  0  0
    5.8233    0.6738   -1.4444 C   0  0  0  0  0  0  0  0  0  0  0  0
    4.8376   -0.3083   -1.5638 C   0  0  0  0  0  0  0  0  0  0  0  0
    0.9167   -0.0396   -1.0194 C   0  0  0  0  0  0  0  0  0  0  0  0
   -0.4334    0.1651   -0.7146 C   0  0  0  0  0  0  0  0  0  0  0  0
  1  2  1  0
  2  3  1  0
  2  4  1  0
  4  5  2  0
  4  6  1  0
  6  7  1  0
  7  8  2  0
  8  9  1  0
  9 10  2  0
 10 11  1  0
 11 12  1  0
 12 13  2  0
 13 14  1  0
 14 15  2  0
 15 16  1  0
 15 17  1  0
 17 18  2  0
 10 19  1  0
 19 20  2  0
 18 12  1  0
 20  7  1  0
M  END
>  <target>  (1022) 
-4.89

$$$$

     RDKit          3D

 14 15  0  0  0  0  0  0  0  0999 V2000
   -0.2905    0.2526   -0.6330 N   0  0  0  0  0  0  0  0  0  0  0  0
    0.2934   -0.2890    0.3318 N   0  0  0  0  0  0  0  0  0  0  0  0
    1.6853   -0.1105    0.2327 C   0  0  0  0  0  0  0  0  0  0  0  0
    2.3625    0.5610    1.2562 C   0  0  0  0  0  0  0  0  0  0  0  0
    3.7481    0.7292    1.2025 C   0  0  0  0  0  0  0  0  0  0  0  0
    4.4702    0.2170    0.1255 C   0  0  0  0  0  0  0  0  0  0  0  0
    3.8095   -0.4656   -0.8949 C   0  0  0  0  0  0  0  0  0  0  0  0
    2.4241   -0.6322   -0.8381 C   0  0  0  0  0  0  0  0  0  0  0  0
   -1.6833    0.0850   -0.5272 C   0  0  0  0  0  0  0  0  0  0  0  0
   -2.2799   -1.1831   -0.5473 C   0  0  0  0  0  0  0  0  0  0  0  0
   -3.6679   -1.3178   -0.4711 C   0  0  0  0  0  0  0  0  0  0  0  0
   -4.4729   -0.1830   -0.3838 C   0  0  0  0  0  0  0  0  0  0  0  0
   -3.8922    1.0844   -0.3761 C   0  0  0  0  0  0  0  0  0  0  0  0
   -2.5036    1.2157   -0.4523 C   0  0  0  0  0  0  0  0  0  0  0  0
  1  2  2  3
  2  3  1  0
  3  4  2  0
  4  5  1  0
  5  6  2  0
  6  7  1  0
  7  8  2  0
  1  9  1  0
  9 10  2  0
 10 11  1  0
 11 12  2  0
 12 13  1  0
 13 14  2  0
  8  3  1  0
 14  9  1  0
M  END
>  <target>  (1023) 
-4.45

$$$$

     RDKit          3D

 10 10  0  0  0  0  0  0  0  0999 V2000
   -2.6577    1.1177    0.3289 C   0  0  0  0  0  0  0  0  0  0  0  0
   -1.9890   -0.1042   -0.3062 C   0  0  0  0  0  0  0  0  0  0  0  0
   -2.5146   -1.3993    0.3178 C   0  0  0  0  0  0  0  0  0  0  0  0
   -0.4756   -0.0191   -0.2226 C   0  0  0  0  0  0  0  0  0  0  0  0
    0.1945    0.0193    1.0084 C   0  0  0  0  0  0  0  0  0  0  0  0
    1.5890    0.0972    1.0619 C   0  0  0  0  0  0  0  0  0  0  0  0
    2.3432    0.1489   -0.1144 C   0  0  0  0  0  0  0  0  0  0  0  0
    3.8407    0.1984   -0.0568 C   0  0  0  0  0  0  0  0  0  0  0  0
    1.6815    0.0957   -1.3449 C   0  0  0  0  0  0  0  0  0  0  0  0
    0.2870    0.0178   -1.3984 C   0  0  0  0  0  0  0  0  0  0  0  0
  1  2  1  0
  2  3  1  0
  2  4  1  0
  4  5  2  0
  5  6  1  0
  6  7  2  0
  7  8  1  0
  7  9  1  0
  9 10  2  0
 10  4  1  0
M  END
>  <target>  (1024) 
-3.77

$$$$

     RDKit          3D

  9  9  0  0  0  0  0  0  0  0999 V2000
    2.4060    0.5676    0.3358 O   0  0  0  0  0  0  0  0  0  0  0  0
    1.0638    0.2841    0.3175 C   0  0  0  0  0  0  0  0  0  0  0  0
    0.1492    1.2215    0.8038 C   0  0  0  0  0  0  0  0  0  0  0  0
    0.6659    2.7428    1.4340 Cl  0  0  0  0  0  0  0  0  0  0  0  0
   -1.2196    0.9376    0.7874 C   0  0  0  0  0  0  0  0  0  0  0  0
   -1.6777   -0.2824    0.2854 C   0  0  0  0  0  0  0  0  0  0  0  0
   -0.7671   -1.2211   -0.2011 C   0  0  0  0  0  0  0  0  0  0  0  0
    0.5993   -0.9362   -0.1841 C   0  0  0  0  0  0  0  0  0  0  0  0
    1.7093   -2.1105   -0.7905 Cl  0  0  0  0  0  0  0  0  0  0  0  0
  1  2  1  0
  2  3  2  0
  3  4  1  0
  3  5  1  0
  5  6  2  0
  6  7  1  0
  7  8  2  0
  8  9  1  0
  8  2  1  0
M  END
>  <target>  (1025) 
-1.79

$$$$

     RDKit          3D

 23 24  0  0  0  0  0  0  0  0999 V2000
    1.4962    1.1579   -2.2262 O   0  0  0  0  0  0  0  0  0  0  0  0
    2.5738    0.4492   -1.5916 C   0  0  0  0  0  0  0  0  0  0  0  0
    2.0259   -0.6735   -0.6948 C   0  0  0  0  0  0  0  0  0  0  0  0
    0.7840   -0.2050   -0.1655 O   0  0  0  0  0  0  0  0  0  0  0  0
    0.1053   -1.0901    0.7083 C   0  0  0  0  0  0  0  0  0  0  0  0
   -1.1904   -0.5443    0.9180 O   0  0  0  0  0  0  0  0  0  0  0  0
   -1.3151    0.6480    1.7027 C   0  0  0  0  0  0  0  0  0  0  0  0
   -1.7900    0.2304    3.1124 C   0  0  0  0  0  0  0  0  0  0  0  0
   -2.9258   -0.6461    3.0324 O   0  0  0  0  0  0  0  0  0  0  0  0
   -2.3942    1.3874    1.0717 O   0  0  0  0  0  0  0  0  0  0  0  0
   -1.7928    2.2069    0.0446 C   0  0  0  0  0  0  0  0  0  0  0  0
   -1.8720    1.5195   -1.3215 C   0  0  0  0  0  0  0  0  0  0  0  0
   -1.2100    2.2941   -2.3101 O   0  0  0  0  0  0  0  0  0  0  0  0
   -0.3942    2.5856    0.5559 C   0  0  0  0  0  0  0  0  0  0  0  0
    0.7033    2.6040   -0.3549 O   0  0  0  0  0  0  0  0  0  0  0  0
   -0.1282    1.6466    1.7370 C   0  0  0  0  0  0  0  0  0  0  0  0
   -0.1086    2.4225    2.9497 O   0  0  0  0  0  0  0  0  0  0  0  0
   -0.1212   -2.4693    0.0510 C   0  0  0  0  0  0  0  0  0  0  0  0
   -1.0794   -2.3701   -1.0287 O   0  0  0  0  0  0  0  0  0  0  0  0
    1.1739   -3.0165   -0.5371 C   0  0  0  0  0  0  0  0  0  0  0  0
    0.9096   -4.2056   -1.2992 O   0  0  0  0  0  0  0  0  0  0  0  0
    1.8422   -1.9876   -1.4583 C   0  0  0  0  0  0  0  0  0  0  0  0
    3.1100   -2.5077   -1.8731 O   0  0  0  0  0  0  0  0  0  0  0  0
  1  2  1  0
  2  3  1  0
  3  4  1  0
  4  5  1  0
  5  6  1  0
  6  7  1  0
  7  8  1  0
  8  9  1  0
  7 10  1  0
 10 11  1  0
 11 12  1  0
 12 13  1  0
 11 14  1  0
 14 15  1  0
 14 16  1  0
 16 17  1  0
  5 18  1  0
 18 19  1  0
 18 20  1  0
 20 21  1  0
 20 22  1  0
 22 23  1  0
 16  7  1  0
 22  3  1  0
M  END
>  <target>  (1026) 
0.79

$$$$

     RDKit          3D

 12 12  0  0  0  0  0  0  0  0999 V2000
   -0.5793    1.4102    1.6940 O   0  0  0  0  0  0  0  0  0  0  0  0
   -0.6061    1.3303    0.2558 C   0  0  0  0  0  0  0  0  0  0  0  0
    0.8236    1.2012   -0.2743 C   0  0  0  0  0  0  0  0  0  0  0  0
    1.6063    2.2804    0.2652 O   0  0  0  0  0  0  0  0  0  0  0  0
    1.4693   -0.1307    0.1415 C   0  0  0  0  0  0  0  0  0  0  0  0
    2.7522   -0.2160   -0.5025 O   0  0  0  0  0  0  0  0  0  0  0  0
    0.6061   -1.3303   -0.2558 C   0  0  0  0  0  0  0  0  0  0  0  0
    0.5793   -1.4102   -1.6941 O   0  0  0  0  0  0  0  0  0  0  0  0
   -0.8236   -1.2012    0.2743 C   0  0  0  0  0  0  0  0  0  0  0  0
   -1.6063   -2.2804   -0.2652 O   0  0  0  0  0  0  0  0  0  0  0  0
   -1.4693    0.1307   -0.1415 C   0  0  0  0  0  0  0  0  0  0  0  0
   -2.7522    0.2160    0.5025 O   0  0  0  0  0  0  0  0  0  0  0  0
  1  2  1  0
  2  3  1  0
  3  4  1  0
  3  5  1  0
  5  6  1  0
  5  7  1  0
  7  8  1  0
  7  9  1  0
  9 10  1  0
  9 11  1  0
 11 12  1  0
 11  2  1  0
M  END
>  <target>  (1027) 
0.35

$$$$

     RDKit          3D

 18 19  0  0  0  0  0  0  0  0999 V2000
   -2.4924   -2.4675    1.2174 C   0  0  0  0  0  0  0  0  0  0  0  0
   -2.0019   -1.1693    0.7974 N   0  0  0  0  0  0  0  0  0  0  0  0
   -2.6375   -0.0450    1.3632 C   0  0  0  0  0  0  0  0  0  0  0  0
   -3.5603   -0.1781    2.1723 O   0  0  0  0  0  0  0  0  0  0  0  0
   -2.1717    1.2107    0.9754 N   0  0  0  0  0  0  0  0  0  0  0  0
   -2.7790    2.4199    1.5016 C   0  0  0  0  0  0  0  0  0  0  0  0
   -1.1172    1.2967    0.0986 C   0  0  0  0  0  0  0  0  0  0  0  0
   -0.5554    2.4462   -0.3635 N   0  0  0  0  0  0  0  0  0  0  0  0
    0.4130    2.0408   -1.1598 C   0  0  0  0  0  0  0  0  0  0  0  0
    0.4792    0.6705   -1.2238 N   0  0  0  0  0  0  0  0  0  0  0  0
    1.3833   -0.0804   -2.0737 C   0  0  0  0  0  0  0  0  0  0  0  0
    2.7911   -0.2606   -1.5040 C   0  0  0  0  0  0  0  0  0  0  0  0
    3.4575    1.0087   -1.4304 O   0  0  0  0  0  0  0  0  0  0  0  0
    2.8387   -0.9305   -0.1288 C   0  0  0  0  0  0  0  0  0  0  0  0
    4.2122   -1.0321    0.2618 O   0  0  0  0  0  0  0  0  0  0  0  0
   -0.5011    0.1880   -0.4005 C   0  0  0  0  0  0  0  0  0  0  0  0
   -0.8885   -1.1334   -0.0462 C   0  0  0  0  0  0  0  0  0  0  0  0
   -0.2778   -2.1282   -0.4267 O   0  0  0  0  0  0  0  0  0  0  0  0
  1  2  1  0
  2  3  1  0
  3  4  2  0
  3  5  1  0
  5  6  1  0
  5  7  1  0
  7  8  1  0
  8  9  2  0
  9 10  1  0
 10 11  1  0
 11 12  1  0
 12 13  1  0
 12 14  1  0
 14 15  1  0
 10 16  1  0
 16 17  1  0
 17 18  2  0
 16  7  2  0
 17  2  1  0
M  END
>  <target>  (1028) 
-0.17

$$$$

     RDKit          3D

 20 20  0  0  0  0  0  0  0  0999 V2000
   -2.5275   -1.2308   -1.6232 O   0  0  0  0  0  0  0  0  0  0  0  0
   -1.6292   -0.1321   -1.7974 C   0  0  0  0  0  0  0  0  0  0  0  0
   -1.2612    0.5078   -0.4457 C   0  0  0  0  0  0  0  0  0  0  0  0
   -2.5039    0.9080    0.2303 N   0  0  0  0  0  0  0  0  0  0  0  0
   -2.5162    1.8065    1.2789 C   0  0  0  0  0  0  0  0  0  0  0  0
   -1.4862    2.3723    1.6508 O   0  0  0  0  0  0  0  0  0  0  0  0
   -3.8627    2.0343    1.9651 C   0  0  0  0  0  0  0  0  0  0  0  0
   -4.3570    0.5288    2.7684 Cl  0  0  0  0  0  0  0  0  0  0  0  0
   -5.0742    2.5383    0.7700 Cl  0  0  0  0  0  0  0  0  0  0  0  0
   -0.4177   -0.4360    0.4638 C   0  0  0  0  0  0  0  0  0  0  0  0
   -1.0074   -1.7447    0.5152 O   0  0  0  0  0  0  0  0  0  0  0  0
    1.0343   -0.5279    0.0287 C   0  0  0  0  0  0  0  0  0  0  0  0
    1.9370    0.4642    0.4496 C   0  0  0  0  0  0  0  0  0  0  0  0
    3.2783    0.4229    0.0605 C   0  0  0  0  0  0  0  0  0  0  0  0
    3.7266   -0.6177   -0.7614 C   0  0  0  0  0  0  0  0  0  0  0  0
    2.8411   -1.6114   -1.1952 C   0  0  0  0  0  0  0  0  0  0  0  0
    1.5008   -1.5615   -0.8006 C   0  0  0  0  0  0  0  0  0  0  0  0
    5.1354   -0.6639   -1.1745 N   0  0  0  0  0  0  0  0  0  0  0  0
    5.8763    0.2497   -0.7855 O   0  0  0  0  0  0  0  0  0  0  0  0
    5.4953   -1.6110   -1.8865 O   0  0  0  0  0  0  0  0  0  0  0  0
  1  2  1  0
  2  3  1  0
  3  4  1  0
  4  5  1  0
  5  6  2  0
  5  7  1  0
  7  8  1  0
  7  9  1  0
  3 10  1  0
 10 11  1  0
 10 12  1  0
 12 13  2  0
 13 14  1  0
 14 15  2  0
 15 16  1  0
 16 17  2  0
 15 18  1  0
 18 19  1  0
 18 20  2  0
 17 12  1  0
M  CHG  2  18   1  19  -1
M  END
>  <target>  (1029) 
-2.1109999999999998

$$$$

     RDKit          3D

  8  7  0  0  0  0  0  0  0  0999 V2000
    1.6190    1.8382    0.1881 C   0  0  0  0  0  0  0  0  0  0  0  0
    1.0482    0.4918    0.6240 C   0  0  0  0  0  0  0  0  0  0  0  0
    0.0862   -0.1615   -0.3943 C   0  0  0  0  0  0  0  0  0  0  0  0
    0.8506   -0.4413   -1.5773 O   0  0  0  0  0  0  0  0  0  0  0  0
   -1.0738    0.7686   -0.8259 C   0  0  0  0  0  0  0  0  0  0  0  0
   -1.9774    1.2576    0.2968 C   0  0  0  0  0  0  0  0  0  0  0  0
   -0.4709   -1.5031    0.1450 C   0  0  0  0  0  0  0  0  0  0  0  0
    0.5805   -2.5773    0.4068 C   0  0  0  0  0  0  0  0  0  0  0  0
  1  2  1  0
  2  3  1  0
  3  4  1  0
  3  5  1  0
  5  6  1  0
  3  7  1  0
  7  8  1  0
M  END
>  <target>  (1030) 
-0.85

$$$$

     RDKit          3D

 21 25  0  0  0  0  0  0  0  0999 V2000
    3.7992    0.1041   -1.5654 C   0  0  0  0  0  0  0  0  0  0  0  0
    2.6524   -0.2362   -0.5818 C   0  0  0  0  0  0  0  0  0  0  0  0
    1.8029   -1.3321   -1.2410 C   0  0  0  0  0  0  0  0  0  0  0  0
    0.4697   -1.5889   -0.5505 C   0  0  0  0  0  0  0  0  0  0  0  0
   -0.3591   -0.2985   -0.4295 C   0  0  0  0  0  0  0  0  0  0  0  0
    0.4326    0.7649    0.3773 C   0  0  0  0  0  0  0  0  0  0  0  0
   -0.3662    2.0804    0.4497 C   0  0  0  0  0  0  0  0  0  0  0  0
   -1.7701    1.8828    1.0040 C   0  0  0  0  0  0  0  0  0  0  0  0
   -2.5505    0.8407    0.1956 C   0  0  0  0  0  0  0  0  0  0  0  0
   -3.9909    0.7388    0.7308 C   0  0  0  0  0  0  0  0  0  0  0  0
   -4.7790   -0.3914    0.1503 C   0  0  0  0  0  0  0  0  0  0  0  0
   -5.0863   -0.4402   -1.5402 S   0  0  0  0  0  0  0  0  0  0  0  0
   -4.0859   -1.4979   -0.5903 C   0  0  0  0  0  0  0  0  0  0  0  0
   -2.6051   -1.4588   -0.8481 C   0  0  0  0  0  0  0  0  0  0  0  0
   -1.8165   -0.5376    0.1321 C   0  0  0  0  0  0  0  0  0  0  0  0
   -1.7745   -1.2271    1.5197 C   0  0  0  0  0  0  0  0  0  0  0  0
    1.8434    1.0355   -0.2256 C   0  0  0  0  0  0  0  0  0  0  0  0
    2.7602    1.7541    0.7907 C   0  0  0  0  0  0  0  0  0  0  0  0
    3.5930    0.6658    1.4759 C   0  0  0  0  0  0  0  0  0  0  0  0
    3.1995   -0.6486    0.8020 C   0  0  0  0  0  0  0  0  0  0  0  0
    4.2792   -1.5620    0.7383 O   0  0  0  0  0  0  0  0  0  0  0  0
  1  2  1  0
  2  3  1  0
  3  4  1  0
  4  5  1  0
  5  6  1  0
  6  7  1  0
  7  8  1  0
  8  9  1  0
  9 10  1  0
 10 11  1  0
 11 12  1  0
 12 13  1  0
 13 14  1  0
 14 15  1  0
 15 16  1  0
  6 17  1  0
 17 18  1  0
 18 19  1  0
 19 20  1  0
 20 21  1  0
 13 11  1  0
 15  5  1  0
 15  9  1  0
 17  2  1  0
 20  2  1  0
M  END
>  <target>  (1031) 
-5.41

$$$$

     RDKit          3D

  8  8  0  0  0  0  0  0  0  0999 V2000
    2.4369   -2.0888   -0.0040 Br  0  0  0  0  0  0  0  0  0  0  0  0
    1.0023   -0.8440   -0.0016 C   0  0  0  0  0  0  0  0  0  0  0  0
   -0.2964   -1.3662   -0.0069 C   0  0  0  0  0  0  0  0  0  0  0  0
   -1.3994   -0.5107   -0.0055 C   0  0  0  0  0  0  0  0  0  0  0  0
   -1.2098    0.8692    0.0012 C   0  0  0  0  0  0  0  0  0  0  0  0
    0.0831    1.3955    0.0066 C   0  0  0  0  0  0  0  0  0  0  0  0
    1.1928    0.5424    0.0052 C   0  0  0  0  0  0  0  0  0  0  0  0
    2.9099    1.3541    0.0127 Br  0  0  0  0  0  0  0  0  0  0  0  0
  1  2  1  0
  2  3  2  0
  3  4  1  0
  4  5  2  0
  5  6  1  0
  6  7  2  0
  7  8  1  0
  7  2  1  0
M  END
>  <target>  (1032) 
-3.5

$$$$

     RDKit          3D

 10 10  0  0  0  0  0  0  0  0999 V2000
    2.3802    0.7352   -0.3552 O   0  0  0  0  0  0  0  0  0  0  0  0
    1.0730    0.3654   -0.1701 C   0  0  0  0  0  0  0  0  0  0  0  0
    0.0525    1.2970   -0.3815 C   0  0  0  0  0  0  0  0  0  0  0  0
    0.3986    2.9144   -0.8738 Cl  0  0  0  0  0  0  0  0  0  0  0  0
   -1.2814    0.9299   -0.1955 C   0  0  0  0  0  0  0  0  0  0  0  0
   -1.5890   -0.3703    0.2020 C   0  0  0  0  0  0  0  0  0  0  0  0
   -3.2330   -0.8232    0.4313 Cl  0  0  0  0  0  0  0  0  0  0  0  0
   -0.5810   -1.3084    0.4161 C   0  0  0  0  0  0  0  0  0  0  0  0
    0.7489   -0.9356    0.2287 C   0  0  0  0  0  0  0  0  0  0  0  0
    1.9932   -2.1012    0.4951 Cl  0  0  0  0  0  0  0  0  0  0  0  0
  1  2  1  0
  2  3  2  0
  3  4  1  0
  3  5  1  0
  5  6  2  0
  6  7  1  0
  6  8  1  0
  8  9  2  0
  9 10  1  0
  9  2  1  0
M  END
>  <target>  (1033) 
-2.34

$$$$

     RDKit          3D

 23 23  0  0  0  0  0  0  0  0999 V2000
   -3.5555   -3.0355   -0.9906 C   0  0  0  0  0  0  0  0  0  0  0  0
   -2.8638   -1.6875   -1.1182 C   0  0  0  0  0  0  0  0  0  0  0  0
   -1.8535   -1.4694    0.0113 C   0  0  0  0  0  0  0  0  0  0  0  0
   -1.1547   -0.1757   -0.1716 N   0  0  0  0  0  0  0  0  0  0  0  0
   -1.8812    1.0082    0.3416 C   0  0  0  0  0  0  0  0  0  0  0  0
   -1.3555    2.3087   -0.2704 C   0  0  0  0  0  0  0  0  0  0  0  0
   -2.1642    3.5082    0.1986 C   0  0  0  0  0  0  0  0  0  0  0  0
    0.2293   -0.2456    0.0629 C   0  0  0  0  0  0  0  0  0  0  0  0
    0.8599   -0.2820    1.3238 C   0  0  0  0  0  0  0  0  0  0  0  0
    2.2583   -0.3103    1.4884 C   0  0  0  0  0  0  0  0  0  0  0  0
    3.0768   -0.3089    0.3599 C   0  0  0  0  0  0  0  0  0  0  0  0
    2.5174   -0.3110   -0.9145 C   0  0  0  0  0  0  0  0  0  0  0  0
    1.1184   -0.2800   -1.0353 C   0  0  0  0  0  0  0  0  0  0  0  0
    0.5916   -0.2760   -2.3847 N   0  0  0  0  0  0  0  0  0  0  0  0
    0.2954   -1.3750   -2.8727 O   0  0  0  0  0  0  0  0  0  0  0  0
    0.5591    0.8159   -2.9683 O   0  0  0  0  0  0  0  0  0  0  0  0
    4.8351   -0.3705    0.5492 S   0  0  0  0  0  0  0  0  0  0  0  0
    5.2214    1.2585    0.6001 N   0  0  0  0  0  0  0  0  0  0  0  0
    5.4122   -0.8914   -0.6657 O   0  0  0  0  0  0  0  0  0  0  0  0
    5.1380   -0.9050    1.8543 O   0  0  0  0  0  0  0  0  0  0  0  0
    0.0896   -0.3167    2.5482 N   0  0  0  0  0  0  0  0  0  0  0  0
    0.0882    0.7148    3.2332 O   0  0  0  0  0  0  0  0  0  0  0  0
   -0.4674   -1.3828    2.8375 O   0  0  0  0  0  0  0  0  0  0  0  0
  1  2  1  0
  2  3  1  0
  3  4  1  0
  4  5  1  0
  5  6  1  0
  6  7  1  0
  4  8  1  0
  8  9  2  0
  9 10  1  0
 10 11  2  0
 11 12  1  0
 12 13  2  0
 13 14  1  0
 14 15  1  0
 14 16  2  0
 11 17  1  0
 17 18  1  0
 17 19  2  0
 17 20  2  0
  9 21  1  0
 21 22  1  0
 21 23  2  0
 13  8  1  0
M  CHG  4  14   1  15  -1  21   1  22  -1
M  END
>  <target>  (1034) 
-5.16

$$$$

     RDKit          3D

 19 21  0  0  0  0  0  0  0  0999 V2000
    0.8711    1.5713   -0.9744 C   0  0  0  0  0  0  0  0  0  0  0  0
   -0.4280    1.5681   -0.2181 C   0  0  0  0  0  0  0  0  0  0  0  0
   -0.8617    2.7688    0.3792 C   0  0  0  0  0  0  0  0  0  0  0  0
   -2.0806    2.8363    1.0461 C   0  0  0  0  0  0  0  0  0  0  0  0
   -2.8817    1.7066    1.1197 C   0  0  0  0  0  0  0  0  0  0  0  0
   -2.4578    0.5102    0.5339 C   0  0  0  0  0  0  0  0  0  0  0  0
   -1.2202    0.4089   -0.1296 C   0  0  0  0  0  0  0  0  0  0  0  0
   -0.8281   -0.8340   -0.7290 N   0  0  0  0  0  0  0  0  0  0  0  0
   -1.8855   -1.7210   -1.2412 C   0  0  0  0  0  0  0  0  0  0  0  0
   -2.1659   -2.9173   -0.3386 C   0  0  0  0  0  0  0  0  0  0  0  0
   -3.3209   -3.5138   -0.7462 F   0  0  0  0  0  0  0  0  0  0  0  0
    0.4809   -1.3417   -0.8421 C   0  0  0  0  0  0  0  0  0  0  0  0
    0.7075   -2.4187   -1.4021 O   0  0  0  0  0  0  0  0  0  0  0  0
    1.6493   -0.6803   -0.2060 C   0  0  0  0  0  0  0  0  0  0  0  0
    2.5950   -1.5011    0.4290 C   0  0  0  0  0  0  0  0  0  0  0  0
    3.7356   -0.9485    1.0118 C   0  0  0  0  0  0  0  0  0  0  0  0
    3.9452    0.4263    0.9536 C   0  0  0  0  0  0  0  0  0  0  0  0
    3.0195    1.2469    0.3082 C   0  0  0  0  0  0  0  0  0  0  0  0
    1.8704    0.6980   -0.2837 C   0  0  0  0  0  0  0  0  0  0  0  0
  1  2  1  0
  2  3  2  0
  3  4  1  0
  4  5  2  0
  5  6  1  0
  6  7  2  0
  7  8  1  0
  8  9  1  0
  9 10  1  0
 10 11  1  0
  8 12  1  0
 12 13  2  0
 12 14  1  0
 14 15  2  0
 15 16  1  0
 16 17  2  0
 17 18  1  0
 18 19  2  0
  7  2  1  0
 19  1  1  0
 19 14  1  0
M  END
>  <target>  (1035) 
-4.7989999999999995

$$$$

     RDKit          3D

  8  7  0  0  0  0  0  0  0  0999 V2000
   -1.9539    1.0666    0.4573 C   0  0  0  0  0  0  0  0  0  0  0  0
   -1.3057   -0.2042   -0.0788 C   0  0  0  0  0  0  0  0  0  0  0  0
   -2.1808   -0.8601   -1.1430 C   0  0  0  0  0  0  0  0  0  0  0  0
    0.0763    0.1282   -0.6382 C   0  0  0  0  0  0  0  0  0  0  0  0
    0.2423    0.4075   -1.8264 O   0  0  0  0  0  0  0  0  0  0  0  0
    1.2422    0.0973    0.3482 C   0  0  0  0  0  0  0  0  0  0  0  0
    1.8050   -1.3169    0.4225 C   0  0  0  0  0  0  0  0  0  0  0  0
    2.3221    1.0977   -0.0534 C   0  0  0  0  0  0  0  0  0  0  0  0
  1  2  1  0
  2  3  1  0
  2  4  1  0
  4  5  2  0
  4  6  1  0
  6  7  1  0
  6  8  1  0
M  END
>  <target>  (1036) 
-1.3

$$$$

     RDKit          3D

 17 17  0  0  0  0  0  0  0  0999 V2000
   -0.8038    0.9363    1.8579 O   0  0  0  0  0  0  0  0  0  0  0  0
   -0.5723    1.1927    0.6786 C   0  0  0  0  0  0  0  0  0  0  0  0
   -0.0630    2.4162    0.3416 N   0  0  0  0  0  0  0  0  0  0  0  0
   -0.3854    3.0472   -0.8168 C   0  0  0  0  0  0  0  0  0  0  0  0
   -0.3730    4.2703   -0.9056 O   0  0  0  0  0  0  0  0  0  0  0  0
   -0.8107    2.2659   -1.8450 N   0  0  0  0  0  0  0  0  0  0  0  0
   -1.3044    0.9973   -1.6952 C   0  0  0  0  0  0  0  0  0  0  0  0
   -2.0612    0.5433   -2.5490 O   0  0  0  0  0  0  0  0  0  0  0  0
   -0.7944    0.2169   -0.4827 C   0  0  0  0  0  0  0  0  0  0  0  0
   -1.7857   -0.9192   -0.0402 C   0  0  0  0  0  0  0  0  0  0  0  0
   -3.2080   -0.3971    0.2335 C   0  0  0  0  0  0  0  0  0  0  0  0
   -1.8767   -2.1194   -0.9950 C   0  0  0  0  0  0  0  0  0  0  0  0
    0.6105   -0.3218   -0.9002 C   0  0  0  0  0  0  0  0  0  0  0  0
    1.3440   -1.1024    0.1624 C   0  0  0  0  0  0  0  0  0  0  0  0
    2.4438   -0.7372    0.8504 C   0  0  0  0  0  0  0  0  0  0  0  0
    3.0428   -1.6666    1.8764 C   0  0  0  0  0  0  0  0  0  0  0  0
    3.1767    0.5687    0.7125 C   0  0  0  0  0  0  0  0  0  0  0  0
  1  2  2  0
  2  3  1  0
  3  4  1  0
  4  5  2  0
  4  6  1  0
  6  7  1  0
  7  8  2  0
  7  9  1  0
  9 10  1  0
 10 11  1  0
 10 12  1  0
  9 13  1  0
 13 14  1  0
 14 15  2  3
 15 16  1  0
 15 17  1  0
  9  2  1  0
M  END
>  <target>  (1037) 
-2.593

$$$$

     RDKit          3D

 19 21  0  0  0  0  0  0  0  0999 V2000
   -2.6055   -1.1175    0.9182 C   0  0  0  0  0  0  0  0  0  0  0  0
   -1.6659   -0.8585    1.8360 C   0  0  0  0  0  0  0  0  0  0  0  0
   -1.5997   -1.6362    2.9806 O   0  0  0  0  0  0  0  0  0  0  0  0
   -0.6453    0.2523    1.6843 C   0  0  0  0  0  0  0  0  0  0  0  0
    0.7542   -0.3771    1.6612 C   0  0  0  0  0  0  0  0  0  0  0  0
    1.0291   -1.3351    2.3954 O   0  0  0  0  0  0  0  0  0  0  0  0
    1.8118    0.3363    0.8477 C   0  0  0  0  0  0  0  0  0  0  0  0
    3.1155   -0.4067    0.6824 C   0  0  0  0  0  0  0  0  0  0  0  0
    3.8376   -0.2302   -0.4350 C   0  0  0  0  0  0  0  0  0  0  0  0
    5.0479   -0.8241   -0.6612 O   0  0  0  0  0  0  0  0  0  0  0  0
    3.3952    0.6610   -1.4836 C   0  0  0  0  0  0  0  0  0  0  0  0
    2.1231    1.0933   -1.5273 C   0  0  0  0  0  0  0  0  0  0  0  0
    1.1349    0.6396   -0.4907 C   0  0  0  0  0  0  0  0  0  0  0  0
    0.1908    1.6760   -0.2435 O   0  0  0  0  0  0  0  0  0  0  0  0
   -0.9516    1.2092    0.4900 C   0  0  0  0  0  0  0  0  0  0  0  0
   -1.9646    0.7204   -0.5135 C   0  0  0  0  0  0  0  0  0  0  0  0
   -2.7245   -0.3685   -0.3097 C   0  0  0  0  0  0  0  0  0  0  0  0
   -3.6756   -0.8848   -1.1523 O   0  0  0  0  0  0  0  0  0  0  0  0
   -3.8877   -0.2298   -2.3967 C   0  0  0  0  0  0  0  0  0  0  0  0
  1  2  2  0
  2  3  1  0
  2  4  1  0
  4  5  1  0
  5  6  2  0
  5  7  1  0
  7  8  1  0
  8  9  2  0
  9 10  1  0
  9 11  1  0
 11 12  2  0
 12 13  1  0
 13 14  1  0
 14 15  1  0
 15 16  1  0
 16 17  2  0
 17 18  1  0
 18 19  1  0
 17  1  1  0
 15  4  1  0
 13  7  1  0
M  END
>  <target>  (1038) 
-2.943

$$$$

     RDKit          3D

 14 15  0  0  0  0  0  0  0  0999 V2000
    3.3276    0.0165   -0.1838 C   0  0  0  0  0  0  0  0  0  0  0  0
    2.0517    0.6726   -0.0512 N   0  0  0  0  0  0  0  0  0  0  0  0
    1.8450    2.0198    0.0867 C   0  0  0  0  0  0  0  0  0  0  0  0
    0.5622    2.3073    0.1851 N   0  0  0  0  0  0  0  0  0  0  0  0
   -0.0628    1.0995    0.1067 C   0  0  0  0  0  0  0  0  0  0  0  0
   -1.4182    0.8821    0.1618 N   0  0  0  0  0  0  0  0  0  0  0  0
   -2.3285    2.0018    0.3175 C   0  0  0  0  0  0  0  0  0  0  0  0
   -1.9048   -0.4221    0.0665 C   0  0  0  0  0  0  0  0  0  0  0  0
   -3.1131   -0.6727    0.1103 O   0  0  0  0  0  0  0  0  0  0  0  0
   -0.9556   -1.4550   -0.0833 N   0  0  0  0  0  0  0  0  0  0  0  0
   -1.4844   -2.8014   -0.1801 C   0  0  0  0  0  0  0  0  0  0  0  0
    0.4307   -1.2856   -0.1446 C   0  0  0  0  0  0  0  0  0  0  0  0
    1.2380   -2.2009   -0.2754 O   0  0  0  0  0  0  0  0  0  0  0  0
    0.8236    0.0760   -0.0388 C   0  0  0  0  0  0  0  0  0  0  0  0
  1  2  1  0
  2  3  1  0
  3  4  2  0
  4  5  1  0
  5  6  1  0
  6  7  1  0
  6  8  1  0
  8  9  2  0
  8 10  1  0
 10 11  1  0
 10 12  1  0
 12 13  2  0
 12 14  1  0
 14  2  1  0
 14  5  2  0
M  END
>  <target>  (1039) 
-0.8759999999999999

$$$$

     RDKit          3D

 29 33  0  0  0  0  0  0  0  0999 V2000
   -0.9824    5.0269   -3.1383 C   0  0  0  0  0  0  0  0  0  0  0  0
   -1.1203    3.9975   -2.0542 C   0  0  0  0  0  0  0  0  0  0  0  0
   -1.6879    4.2073   -0.9907 O   0  0  0  0  0  0  0  0  0  0  0  0
   -0.3702    2.4480   -2.4319 S   0  0  0  0  0  0  0  0  0  0  0  0
   -1.0909    1.4006   -1.0996 C   0  0  0  0  0  0  0  0  0  0  0  0
   -2.5321    1.0617   -1.4989 C   0  0  0  0  0  0  0  0  0  0  0  0
   -3.2001    0.1483   -0.4996 C   0  0  0  0  0  0  0  0  0  0  0  0
   -4.3891    0.4932    0.0257 C   0  0  0  0  0  0  0  0  0  0  0  0
   -5.1490   -0.4287    0.8989 C   0  0  0  0  0  0  0  0  0  0  0  0
   -6.2035   -0.0543    1.4045 O   0  0  0  0  0  0  0  0  0  0  0  0
   -4.6333   -1.8333    1.0542 C   0  0  0  0  0  0  0  0  0  0  0  0
   -3.1120   -1.8334    1.0720 C   0  0  0  0  0  0  0  0  0  0  0  0
   -2.4649   -1.1517   -0.1736 C   0  0  0  0  0  0  0  0  0  0  0  0
   -2.5965   -2.1030   -1.3844 C   0  0  0  0  0  0  0  0  0  0  0  0
   -0.9590   -0.8245    0.1677 C   0  0  0  0  0  0  0  0  0  0  0  0
   -0.1152   -2.0936    0.4053 C   0  0  0  0  0  0  0  0  0  0  0  0
    1.2989   -1.7630    0.8713 C   0  0  0  0  0  0  0  0  0  0  0  0
    2.0635   -0.8451   -0.1069 C   0  0  0  0  0  0  0  0  0  0  0  0
    2.4458   -1.6327   -1.3761 C   0  0  0  0  0  0  0  0  0  0  0  0
    1.2199    0.4020   -0.4715 C   0  0  0  0  0  0  0  0  0  0  0  0
    1.3974    1.3469    0.7318 C   0  0  0  0  0  0  0  0  0  0  0  0
    2.7105    0.9516    1.4167 C   0  0  0  0  0  0  0  0  0  0  0  0
    3.3004   -0.1919    0.5727 C   0  0  0  0  0  0  0  0  0  0  0  0
    4.2128   -1.1205    1.3535 C   0  0  0  0  0  0  0  0  0  0  0  0
    5.5298   -0.3815    1.3462 C   0  0  0  0  0  0  0  0  0  0  0  0
    5.4662    0.3457    0.0384 C   0  0  0  0  0  0  0  0  0  0  0  0
    6.4165    0.8465   -0.5394 O   0  0  0  0  0  0  0  0  0  0  0  0
    4.1750    0.3980   -0.4064 O   0  0  0  0  0  0  0  0  0  0  0  0
   -0.2557    0.1066   -0.8710 C   0  0  0  0  0  0  0  0  0  0  0  0
  1  2  1  0
  2  3  2  0
  2  4  1  0
  4  5  1  0
  5  6  1  0
  6  7  1  0
  7  8  2  0
  8  9  1  0
  9 10  2  0
  9 11  1  0
 11 12  1  0
 12 13  1  0
 13 14  1  0
 13 15  1  0
 15 16  1  0
 16 17  1  0
 17 18  1  0
 18 19  1  0
 18 20  1  0
 20 21  1  0
 21 22  1  0
 22 23  1  0
 23 24  1  0
 24 25  1  0
 25 26  1  0
 26 27  2  0
 26 28  1  0
 20 29  1  0
 13  7  1  0
 23 18  1  0
 28 23  1  0
 29  5  1  0
 29 15  1  0
M  END
>  <target>  (1040) 
-4.173

$$$$

     RDKit          3D

  9  9  0  0  0  0  0  0  0  0999 V2000
   -1.6221    1.3514   -0.9847 C   0  0  0  0  0  0  0  0  0  0  0  0
   -0.4168    0.6835   -0.3814 C   0  0  0  0  0  0  0  0  0  0  0  0
    0.7941    1.3915   -0.3015 C   0  0  0  0  0  0  0  0  0  0  0  0
    1.9326    0.8037    0.2520 C   0  0  0  0  0  0  0  0  0  0  0  0
    1.8622   -0.4983    0.7285 C   0  0  0  0  0  0  0  0  0  0  0  0
    2.9484   -1.1138    1.2775 O   0  0  0  0  0  0  0  0  0  0  0  0
    0.6750   -1.2182    0.6601 C   0  0  0  0  0  0  0  0  0  0  0  0
   -0.4771   -0.6387    0.1059 C   0  0  0  0  0  0  0  0  0  0  0  0
   -1.7470   -1.4419    0.0453 C   0  0  0  0  0  0  0  0  0  0  0  0
  1  2  1  0
  2  3  2  0
  3  4  1  0
  4  5  2  0
  5  6  1  0
  5  7  1  0
  7  8  2  0
  8  9  1  0
  8  2  1  0
M  END
>  <target>  (1041) 
-1.38

$$$$

     RDKit          3D

 13 14  0  0  0  0  0  0  0  0999 V2000
   -0.0569    1.3544   -0.3884 O   0  0  0  0  0  0  0  0  0  0  0  0
    1.1368    0.6694   -0.3616 C   0  0  0  0  0  0  0  0  0  0  0  0
    1.9960    0.8523   -1.4456 C   0  0  0  0  0  0  0  0  0  0  0  0
    3.2364    0.2140   -1.4653 C   0  0  0  0  0  0  0  0  0  0  0  0
    3.6219   -0.5935   -0.3946 C   0  0  0  0  0  0  0  0  0  0  0  0
    2.7717   -0.7576    0.6998 C   0  0  0  0  0  0  0  0  0  0  0  0
    1.5304   -0.1199    0.7220 C   0  0  0  0  0  0  0  0  0  0  0  0
   -1.1926    0.6598   -0.0386 C   0  0  0  0  0  0  0  0  0  0  0  0
   -1.5003   -0.5981   -0.5634 C   0  0  0  0  0  0  0  0  0  0  0  0
   -2.6881   -1.2310   -0.1944 C   0  0  0  0  0  0  0  0  0  0  0  0
   -3.5717   -0.6015    0.6834 C   0  0  0  0  0  0  0  0  0  0  0  0
   -3.2733    0.6647    1.1880 C   0  0  0  0  0  0  0  0  0  0  0  0
   -2.0864    1.2995    0.8208 C   0  0  0  0  0  0  0  0  0  0  0  0
  1  2  1  0
  2  3  2  0
  3  4  1  0
  4  5  2  0
  5  6  1  0
  6  7  2  0
  1  8  1  0
  8  9  2  0
  9 10  1  0
 10 11  2  0
 11 12  1  0
 12 13  2  0
  7  2  1  0
 13  8  1  0
M  END
>  <target>  (1042) 
-3.96

$$$$

     RDKit          3D

 18 19  0  0  0  0  0  0  0  0999 V2000
   -5.2812    0.1477    0.0536 Cl  0  0  0  0  0  0  0  0  0  0  0  0
   -3.5544    0.1329    0.0241 C   0  0  0  0  0  0  0  0  0  0  0  0
   -2.9122   -1.0896    0.2293 C   0  0  0  0  0  0  0  0  0  0  0  0
   -1.5162   -1.1592    0.2171 C   0  0  0  0  0  0  0  0  0  0  0  0
   -0.7881   -2.7054    0.4861 Cl  0  0  0  0  0  0  0  0  0  0  0  0
   -0.7367   -0.0074   -0.0020 C   0  0  0  0  0  0  0  0  0  0  0  0
   -1.4013    1.2162   -0.2037 C   0  0  0  0  0  0  0  0  0  0  0  0
   -2.7989    1.2888   -0.1924 C   0  0  0  0  0  0  0  0  0  0  0  0
   -3.5232    2.8354   -0.4501 Cl  0  0  0  0  0  0  0  0  0  0  0  0
    0.7352   -0.0389   -0.0295 C   0  0  0  0  0  0  0  0  0  0  0  0
    1.4493    0.1908    1.1608 C   0  0  0  0  0  0  0  0  0  0  0  0
    2.8484    0.1627    1.1798 C   0  0  0  0  0  0  0  0  0  0  0  0
    3.6355    0.4559    2.6889 Cl  0  0  0  0  0  0  0  0  0  0  0  0
    3.5558   -0.0946    0.0020 C   0  0  0  0  0  0  0  0  0  0  0  0
    5.2814   -0.1423   -0.0500 Cl  0  0  0  0  0  0  0  0  0  0  0  0
    2.8640   -0.3217   -1.1893 C   0  0  0  0  0  0  0  0  0  0  0  0
    1.4666   -0.2935   -1.2052 C   0  0  0  0  0  0  0  0  0  0  0  0
    0.6761   -0.5758   -2.7180 Cl  0  0  0  0  0  0  0  0  0  0  0  0
  1  2  1  0
  2  3  2  0
  3  4  1  0
  4  5  1  0
  4  6  2  0
  6  7  1  0
  7  8  2  0
  8  9  1  0
  6 10  1  0
 10 11  2  0
 11 12  1  0
 12 13  1  0
 12 14  2  0
 14 15  1  0
 14 16  1  0
 16 17  2  0
 17 18  1  0
  8  2  1  0
 17 10  1  0
M  END
>  <target>  (1043) 
-8.56

$$$$

     RDKit          3D

  9  9  0  0  0  0  0  0  0  0999 V2000
    2.5235    0.1164   -0.6625 N   0  0  0  0  0  0  0  0  0  0  0  0
    1.7679   -0.0325    0.4680 C   0  0  0  0  0  0  0  0  0  0  0  0
    2.3011   -0.1347    1.5652 O   0  0  0  0  0  0  0  0  0  0  0  0
    0.2955   -0.0308    0.3204 C   0  0  0  0  0  0  0  0  0  0  0  0
   -0.3601   -0.2716   -0.8894 C   0  0  0  0  0  0  0  0  0  0  0  0
   -1.7542   -0.2516   -0.9271 C   0  0  0  0  0  0  0  0  0  0  0  0
   -2.4441    0.0045    0.2479 C   0  0  0  0  0  0  0  0  0  0  0  0
   -1.8424    0.2315    1.4348 N   0  0  0  0  0  0  0  0  0  0  0  0
   -0.4853    0.2012    1.4466 C   0  0  0  0  0  0  0  0  0  0  0  0
  1  2  1  0
  2  3  2  0
  2  4  1  0
  4  5  2  0
  5  6  1  0
  6  7  2  0
  7  8  1  0
  8  9  2  0
  9  4  1  0
M  END
>  <target>  (1044) 
0.61

$$$$

     RDKit          3D

  7  7  0  0  0  0  0  0  0  0999 V2000
    2.5676   -1.2781   -0.1847 S   0  0  0  0  0  0  0  0  0  0  0  0
    0.9567   -0.5278   -0.0970 C   0  0  0  0  0  0  0  0  0  0  0  0
    0.8111    0.8607   -0.1668 C   0  0  0  0  0  0  0  0  0  0  0  0
   -0.4592    1.4383   -0.1036 C   0  0  0  0  0  0  0  0  0  0  0  0
   -1.5879    0.6303    0.0255 C   0  0  0  0  0  0  0  0  0  0  0  0
   -1.4484   -0.7553    0.0888 C   0  0  0  0  0  0  0  0  0  0  0  0
   -0.1787   -1.3335    0.0255 C   0  0  0  0  0  0  0  0  0  0  0  0
  1  2  1  0
  2  3  2  0
  3  4  1  0
  4  5  2  0
  5  6  1  0
  6  7  2  0
  7  2  1  0
M  END
>  <target>  (1045) 
-2.12

$$$$

     RDKit          3D

 13 13  0  0  0  0  0  0  0  0999 V2000
    4.7885    0.1971   -0.2403 C   0  0  0  0  0  0  0  0  0  0  0  0
    3.6134   -0.3309    0.3963 N   0  0  0  0  0  0  0  0  0  0  0  0
    2.3536   -0.0442   -0.0546 C   0  0  0  0  0  0  0  0  0  0  0  0
    2.1101    0.5886   -1.0726 O   0  0  0  0  0  0  0  0  0  0  0  0
    1.4275   -0.5725    0.8299 O   0  0  0  0  0  0  0  0  0  0  0  0
    0.0960   -0.3276    0.4805 C   0  0  0  0  0  0  0  0  0  0  0  0
   -0.6597   -1.3845   -0.0224 C   0  0  0  0  0  0  0  0  0  0  0  0
   -2.0088   -1.1825   -0.3303 C   0  0  0  0  0  0  0  0  0  0  0  0
   -2.8258   -2.2899   -0.9266 C   0  0  0  0  0  0  0  0  0  0  0  0
   -2.5729    0.0876   -0.1310 C   0  0  0  0  0  0  0  0  0  0  0  0
   -1.8166    1.1409    0.4069 C   0  0  0  0  0  0  0  0  0  0  0  0
   -2.4285    2.4980    0.5899 C   0  0  0  0  0  0  0  0  0  0  0  0
   -0.4687    0.9258    0.7115 C   0  0  0  0  0  0  0  0  0  0  0  0
  1  2  1  0
  2  3  1  0
  3  4  2  0
  3  5  1  0
  5  6  1  0
  6  7  2  0
  7  8  1  0
  8  9  1  0
  8 10  2  0
 10 11  1  0
 11 12  1  0
 11 13  2  0
 13  6  1  0
M  END
>  <target>  (1046) 
-2.5810000000000004

$$$$

     RDKit          3D

 18 20  0  0  0  0  0  0  0  0999 V2000
    3.3907   -0.0330   -1.8278 Cl  0  0  0  0  0  0  0  0  0  0  0  0
    2.3429   -0.0873   -0.4003 C   0  0  0  0  0  0  0  0  0  0  0  0
    1.3448   -1.2459   -0.4862 C   0  0  0  0  0  0  0  0  0  0  0  0
    0.2839   -0.8752    0.5534 C   0  0  0  0  0  0  0  0  0  0  0  0
    0.3571    0.6823    0.7110 C   0  0  0  0  0  0  0  0  0  0  0  0
    1.4370    1.1438   -0.2757 C   0  0  0  0  0  0  0  0  0  0  0  0
    2.2985    2.5713    0.3319 Cl  0  0  0  0  0  0  0  0  0  0  0  0
   -1.1268    1.1163    0.4783 C   0  0  0  0  0  0  0  0  0  0  0  0
   -1.4851    2.7285    1.0624 Cl  0  0  0  0  0  0  0  0  0  0  0  0
   -1.4947    0.8224   -0.9630 C   0  0  0  0  0  0  0  0  0  0  0  0
   -1.5522   -0.5075   -1.1013 C   0  0  0  0  0  0  0  0  0  0  0  0
   -1.8874   -1.3915   -2.5061 Cl  0  0  0  0  0  0  0  0  0  0  0  0
   -1.2287   -1.1202    0.2468 C   0  0  0  0  0  0  0  0  0  0  0  0
   -1.7185   -2.7846    0.4887 Cl  0  0  0  0  0  0  0  0  0  0  0  0
   -1.9163   -0.0531    1.1696 C   0  0  0  0  0  0  0  0  0  0  0  0
   -3.7118    0.0421    1.0079 Cl  0  0  0  0  0  0  0  0  0  0  0  0
   -1.5822   -0.2514    2.9269 Cl  0  0  0  0  0  0  0  0  0  0  0  0
   -1.7387    2.0014   -2.1538 Cl  0  0  0  0  0  0  0  0  0  0  0  0
  1  2  1  0
  2  3  1  0
  3  4  1  0
  4  5  1  0
  5  6  1  0
  6  7  1  0
  5  8  1  0
  8  9  1  0
  8 10  1  0
 10 11  2  0
 11 12  1  0
 11 13  1  0
 13 14  1  0
 13 15  1  0
 15 16  1  0
 15 17  1  0
 10 18  1  0
  6  2  1  0
 13  4  1  0
 15  8  1  0
M  END
>  <target>  (1047) 
-6.86

$$$$

     RDKit          3D

  4  3  0  0  0  0  0  0  0  0999 V2000
   -1.8278   -0.0920    0.2327 C   0  0  0  0  0  0  0  0  0  0  0  0
   -0.6860   -1.4067   -0.2616 S   0  0  0  0  0  0  0  0  0  0  0  0
    0.6998   -0.3710   -1.3749 S   0  0  0  0  0  0  0  0  0  0  0  0
    1.8266    0.2397   -0.0967 C   0  0  0  0  0  0  0  0  0  0  0  0
  1  2  1  0
  2  3  1  0
  3  4  1  0
M  END
>  <target>  (1048) 
-1.44

$$$$

     RDKit          3D

  9  9  0  0  0  0  0  0  0  0999 V2000
    2.7400   -0.4971   -0.0189 N   0  0  0  0  0  0  0  0  0  0  0  0
    1.8656    0.5149   -0.3067 C   0  0  0  0  0  0  0  0  0  0  0  0
    2.2764    1.6144   -0.6556 O   0  0  0  0  0  0  0  0  0  0  0  0
    0.4142    0.2378   -0.1359 C   0  0  0  0  0  0  0  0  0  0  0  0
   -0.1055   -1.0628   -0.1693 C   0  0  0  0  0  0  0  0  0  0  0  0
   -1.4774   -1.2714   -0.0046 C   0  0  0  0  0  0  0  0  0  0  0  0
   -2.3326   -0.1862    0.1870 C   0  0  0  0  0  0  0  0  0  0  0  0
   -1.8220    1.1111    0.2069 C   0  0  0  0  0  0  0  0  0  0  0  0
   -0.4522    1.3239    0.0416 C   0  0  0  0  0  0  0  0  0  0  0  0
  1  2  1  0
  2  3  2  0
  2  4  1  0
  4  5  2  0
  5  6  1  0
  6  7  2  0
  7  8  1  0
  8  9  2  0
  9  4  1  0
M  END
>  <target>  (1049) 
-0.96

$$$$

     RDKit          3D

  8  8  0  0  0  0  0  0  0  0999 V2000
    2.8675    1.0322    0.1398 Cl  0  0  0  0  0  0  0  0  0  0  0  0
    1.2454    0.4425    0.0610 C   0  0  0  0  0  0  0  0  0  0  0  0
    0.2192    1.3870   -0.0476 C   0  0  0  0  0  0  0  0  0  0  0  0
   -1.1128    0.9751   -0.1155 C   0  0  0  0  0  0  0  0  0  0  0  0
   -1.4241   -0.3826   -0.0752 C   0  0  0  0  0  0  0  0  0  0  0  0
   -0.4044   -1.3299    0.0331 C   0  0  0  0  0  0  0  0  0  0  0  0
    0.9321   -0.9208    0.1014 C   0  0  0  0  0  0  0  0  0  0  0  0
    2.2557   -2.2751    0.2475 Br  0  0  0  0  0  0  0  0  0  0  0  0
  1  2  1  0
  2  3  2  0
  3  4  1  0
  4  5  2  0
  5  6  1  0
  6  7  2  0
  7  8  1  0
  7  2  1  0
M  END
>  <target>  (1050) 
-3.19

$$$$

     RDKit          3D

 31 33  0  0  0  0  0  0  0  0999 V2000
   -4.5104    2.0745   -0.9974 C   0  0  0  0  0  0  0  0  0  0  0  0
   -3.8906    0.8119   -1.2400 O   0  0  0  0  0  0  0  0  0  0  0  0
   -4.7235   -0.2490   -1.1065 C   0  0  0  0  0  0  0  0  0  0  0  0
   -5.9252   -0.2022   -0.8905 O   0  0  0  0  0  0  0  0  0  0  0  0
   -3.9916   -1.5132   -1.3567 C   0  0  0  0  0  0  0  0  0  0  0  0
   -4.6804   -2.5126   -2.0627 C   0  0  0  0  0  0  0  0  0  0  0  0
   -4.0629   -3.7311   -2.3397 C   0  0  0  0  0  0  0  0  0  0  0  0
   -2.7621   -3.9623   -1.8994 C   0  0  0  0  0  0  0  0  0  0  0  0
   -2.0764   -2.9783   -1.1804 C   0  0  0  0  0  0  0  0  0  0  0  0
   -2.6789   -1.7428   -0.9125 C   0  0  0  0  0  0  0  0  0  0  0  0
   -2.0715   -0.7852   -0.1445 O   0  0  0  0  0  0  0  0  0  0  0  0
   -0.6714   -0.5799   -0.3725 C   0  0  0  0  0  0  0  0  0  0  0  0
    0.1076   -1.3982    0.5104 O   0  0  0  0  0  0  0  0  0  0  0  0
    0.1971   -0.9706    1.8786 C   0  0  0  0  0  0  0  0  0  0  0  0
    1.6940   -0.8181    2.2143 C   0  0  0  0  0  0  0  0  0  0  0  0
    2.1759    0.3481    1.5592 O   0  0  0  0  0  0  0  0  0  0  0  0
    3.5723    0.3568    1.2640 C   0  0  0  0  0  0  0  0  0  0  0  0
    3.9764   -0.7728    0.5014 O   0  0  0  0  0  0  0  0  0  0  0  0
    3.4224   -0.8325   -0.8197 C   0  0  0  0  0  0  0  0  0  0  0  0
    3.3778    0.5181   -1.5468 C   0  0  0  0  0  0  0  0  0  0  0  0
    2.0367    1.1038   -1.4180 O   0  0  0  0  0  0  0  0  0  0  0  0
    4.3656    1.4981   -0.9066 C   0  0  0  0  0  0  0  0  0  0  0  0
    5.7078    1.0431   -1.0253 O   0  0  0  0  0  0  0  0  0  0  0  0
    3.9162    1.7062    0.5519 C   0  0  0  0  0  0  0  0  0  0  0  0
    2.7382    2.5594    0.5112 O   0  0  0  0  0  0  0  0  0  0  0  0
   -0.6574    0.2656    2.2118 C   0  0  0  0  0  0  0  0  0  0  0  0
   -0.4291    0.7484    3.5451 O   0  0  0  0  0  0  0  0  0  0  0  0
   -0.4646    1.4155    1.2111 C   0  0  0  0  0  0  0  0  0  0  0  0
   -1.5675    2.3346    1.3467 O   0  0  0  0  0  0  0  0  0  0  0  0
   -0.3554    0.9319   -0.2448 C   0  0  0  0  0  0  0  0  0  0  0  0
    0.9570    1.1846   -0.8262 O   0  0  0  0  0  0  0  0  0  0  0  0
  1  2  1  0
  2  3  1  0
  3  4  2  0
  3  5  1  0
  5  6  2  0
  6  7  1  0
  7  8  2  0
  8  9  1  0
  9 10  2  0
 10 11  1  0
 11 12  1  0
 12 13  1  0
 13 14  1  0
 14 15  1  0
 15 16  1  0
 16 17  1  0
 17 18  1  0
 18 19  1  0
 19 20  1  0
 20 21  1  0
 20 22  1  0
 22 23  1  0
 22 24  1  0
 24 25  1  0
 14 26  1  0
 26 27  1  0
 26 28  1  0
 28 29  1  0
 28 30  1  0
 30 31  1  0
 10  5  1  0
 30 12  1  0
 24 17  1  0
M  END
>  <target>  (1051) 
-0.742

$$$$

     RDKit          3D

  8  7  0  0  0  0  0  0  0  0999 V2000
   -3.7140    0.2177    0.1963 C   0  0  0  0  0  0  0  0  0  0  0  0
   -2.3490    0.4281   -0.4394 C   0  0  0  0  0  0  0  0  0  0  0  0
   -1.2379   -0.2097    0.3954 C   0  0  0  0  0  0  0  0  0  0  0  0
    0.1360    0.0060   -0.2504 C   0  0  0  0  0  0  0  0  0  0  0  0
    1.2727   -0.5858    0.5938 C   0  0  0  0  0  0  0  0  0  0  0  0
    1.0549   -1.9869    0.7687 O   0  0  0  0  0  0  0  0  0  0  0  0
    2.6578   -0.3993   -0.0361 C   0  0  0  0  0  0  0  0  0  0  0  0
    3.0963    1.0524   -0.1362 C   0  0  0  0  0  0  0  0  0  0  0  0
  1  2  1  0
  2  3  1  0
  3  4  1  0
  4  5  1  0
  5  6  1  0
  5  7  1  0
  7  8  1  0
M  END
>  <target>  (1052) 
-1.47

$$$$

     RDKit          3D

 20 22  0  0  0  0  0  0  0  0999 V2000
    1.0966   -2.9600   -0.9877 C   0  0  0  0  0  0  0  0  0  0  0  0
    1.4964   -2.0198    0.1503 C   0  0  0  0  0  0  0  0  0  0  0  0
    1.0633   -0.6330   -0.1195 N   0  0  0  0  0  0  0  0  0  0  0  0
   -0.3380   -0.4364   -0.0383 C   0  0  0  0  0  0  0  0  0  0  0  0
   -1.0906   -1.4116    0.5410 N   0  0  0  0  0  0  0  0  0  0  0  0
   -2.4353   -1.3082    0.5595 C   0  0  0  0  0  0  0  0  0  0  0  0
   -3.2005   -2.4164    1.2172 C   0  0  0  0  0  0  0  0  0  0  0  0
   -3.1018   -0.2400   -0.0121 C   0  0  0  0  0  0  0  0  0  0  0  0
   -2.3603    0.7795   -0.6146 C   0  0  0  0  0  0  0  0  0  0  0  0
   -3.1034    1.9342   -1.2320 C   0  0  0  0  0  0  0  0  0  0  0  0
   -0.9496    0.6948   -0.6138 C   0  0  0  0  0  0  0  0  0  0  0  0
   -0.2403    1.7182   -1.2685 N   0  0  0  0  0  0  0  0  0  0  0  0
    1.0533    2.1388   -1.1364 C   0  0  0  0  0  0  0  0  0  0  0  0
    1.4429    3.0549   -1.8644 O   0  0  0  0  0  0  0  0  0  0  0  0
    1.9415    1.6486   -0.0711 C   0  0  0  0  0  0  0  0  0  0  0  0
    2.8734    2.5677    0.4454 C   0  0  0  0  0  0  0  0  0  0  0  0
    3.7804    2.1732    1.4171 C   0  0  0  0  0  0  0  0  0  0  0  0
    3.7340    0.8613    1.8303 C   0  0  0  0  0  0  0  0  0  0  0  0
    2.8603   -0.0445    1.3398 N   0  0  0  0  0  0  0  0  0  0  0  0
    1.9537    0.3362    0.3915 C   0  0  0  0  0  0  0  0  0  0  0  0
  1  2  1  0
  2  3  1  0
  3  4  1  0
  4  5  2  0
  5  6  1  0
  6  7  1  0
  6  8  2  0
  8  9  1  0
  9 10  1  0
  9 11  2  0
 11 12  1  0
 12 13  1  0
 13 14  2  0
 13 15  1  0
 15 16  2  0
 16 17  1  0
 17 18  2  0
 18 19  1  0
 19 20  2  0
 11  4  1  0
 20  3  1  0
 20 15  1  0
M  END
>  <target>  (1053) 
-4.553999999999999

$$$$

     RDKit          3D

  9  9  0  0  0  0  0  0  0  0999 V2000
    2.4665   -0.5737    0.1962 O   0  0  0  0  0  0  0  0  0  0  0  0
    1.1401   -0.2770    0.0872 C   0  0  0  0  0  0  0  0  0  0  0  0
    0.6528    0.9899    0.3925 C   0  0  0  0  0  0  0  0  0  0  0  0
   -0.7140    1.2386    0.2632 C   0  0  0  0  0  0  0  0  0  0  0  0
   -1.3314    2.8014    0.6374 Cl  0  0  0  0  0  0  0  0  0  0  0  0
   -1.5850    0.2381   -0.1650 C   0  0  0  0  0  0  0  0  0  0  0  0
   -1.0764   -1.0239   -0.4658 C   0  0  0  0  0  0  0  0  0  0  0  0
   -2.1419   -2.2672   -0.9953 Cl  0  0  0  0  0  0  0  0  0  0  0  0
    0.2862   -1.2878   -0.3416 C   0  0  0  0  0  0  0  0  0  0  0  0
  1  2  1  0
  2  3  2  0
  3  4  1  0
  4  5  1  0
  4  6  2  0
  6  7  1  0
  7  8  1  0
  7  9  2  0
  9  2  1  0
M  END
>  <target>  (1054) 
-1.34

$$$$

     RDKit          3D

 15 17  0  0  0  0  0  0  0  0999 V2000
   -3.5834   -1.0187   -0.2234 C   0  0  0  0  0  0  0  0  0  0  0  0
   -2.4923   -0.0567    0.1759 C   0  0  0  0  0  0  0  0  0  0  0  0
   -2.8689    1.1333    0.8116 C   0  0  0  0  0  0  0  0  0  0  0  0
   -1.9087    2.0524    1.1998 C   0  0  0  0  0  0  0  0  0  0  0  0
   -0.5608    1.7915    0.9565 C   0  0  0  0  0  0  0  0  0  0  0  0
   -0.1174    0.6074    0.3183 C   0  0  0  0  0  0  0  0  0  0  0  0
   -1.1164   -0.3283   -0.0751 C   0  0  0  0  0  0  0  0  0  0  0  0
   -0.7046   -1.5125   -0.7108 C   0  0  0  0  0  0  0  0  0  0  0  0
    0.6385   -1.7854   -0.9598 C   0  0  0  0  0  0  0  0  0  0  0  0
    1.6318   -0.8838   -0.5831 C   0  0  0  0  0  0  0  0  0  0  0  0
    2.9776   -1.1909   -0.8498 C   0  0  0  0  0  0  0  0  0  0  0  0
    3.9992   -0.3174   -0.4897 C   0  0  0  0  0  0  0  0  0  0  0  0
    3.6843    0.8748    0.1420 C   0  0  0  0  0  0  0  0  0  0  0  0
    2.3483    1.1892    0.4115 C   0  0  0  0  0  0  0  0  0  0  0  0
    1.2760    0.3267    0.0612 C   0  0  0  0  0  0  0  0  0  0  0  0
  1  2  1  0
  2  3  2  0
  3  4  1  0
  4  5  2  0
  5  6  1  0
  6  7  2  0
  7  8  1  0
  8  9  2  0
  9 10  1  0
 10 11  2  0
 11 12  1  0
 12 13  2  0
 13 14  1  0
 14 15  2  0
  7  2  1  0
 15  6  1  0
 15 10  1  0
M  END
>  <target>  (1055) 
-5.85

$$$$

     RDKit          3D

  9  8  0  0  0  0  0  0  0  0999 V2000
    3.9406    0.4366   -0.0446 C   0  0  0  0  0  0  0  0  0  0  0  0
    2.7652   -0.5085    0.1480 C   0  0  0  0  0  0  0  0  0  0  0  0
    1.4318    0.1939   -0.1161 C   0  0  0  0  0  0  0  0  0  0  0  0
    0.2518   -0.7627    0.0882 C   0  0  0  0  0  0  0  0  0  0  0  0
   -1.1190   -0.1683   -0.3222 C   0  0  0  0  0  0  0  0  0  0  0  0
   -1.4799    1.0647    0.5319 C   0  0  0  0  0  0  0  0  0  0  0  0
   -2.7962    1.7264    0.1448 C   0  0  0  0  0  0  0  0  0  0  0  0
   -2.2066   -1.2536   -0.2359 C   0  0  0  0  0  0  0  0  0  0  0  0
   -1.8829   -2.3438   -1.0912 O   0  0  0  0  0  0  0  0  0  0  0  0
  1  2  1  0
  2  3  1  0
  3  4  1  0
  4  5  1  0
  5  6  1  0
  6  7  1  0
  5  8  1  0
  8  9  1  0
M  END
>  <target>  (1056) 
-2.11

$$$$

     RDKit          3D

 15 14  0  0  0  0  0  0  0  0999 V2000
   -1.9461   -2.0788    0.4650 C   0  0  0  0  0  0  0  0  0  0  0  0
   -1.9540   -0.5589    0.6545 C   0  0  0  0  0  0  0  0  0  0  0  0
   -2.1223   -0.1725    2.1263 C   0  0  0  0  0  0  0  0  0  0  0  0
   -0.7905    0.1055    0.0192 N   0  0  0  0  0  0  0  0  0  0  0  0
   -1.0706    1.0532   -1.0929 C   0  0  0  0  0  0  0  0  0  0  0  0
   -1.9445    2.2278   -0.6429 C   0  0  0  0  0  0  0  0  0  0  0  0
   -1.6675    0.3365   -2.3065 C   0  0  0  0  0  0  0  0  0  0  0  0
    0.4898   -0.2234    0.4884 C   0  0  0  0  0  0  0  0  0  0  0  0
    0.6925   -0.9989    1.4159 O   0  0  0  0  0  0  0  0  0  0  0  0
    1.8662    0.5220   -0.3129 S   0  0  0  0  0  0  0  0  0  0  0  0
    3.2089   -0.2605    0.6280 C   0  0  0  0  0  0  0  0  0  0  0  0
    4.5391    0.2328    0.1309 C   0  0  0  0  0  0  0  0  0  0  0  0
    5.3640   -0.3979   -0.7133 C   0  0  0  0  0  0  0  0  0  0  0  0
    5.0475   -1.9079   -1.4579 Cl  0  0  0  0  0  0  0  0  0  0  0  0
    5.0587    1.7561    0.7971 Cl  0  0  0  0  0  0  0  0  0  0  0  0
  1  2  1  0
  2  3  1  0
  2  4  1  0
  4  5  1  0
  5  6  1  0
  5  7  1  0
  4  8  1  0
  8  9  2  0
  8 10  1  0
 10 11  1  0
 11 12  1  0
 12 13  2  3
 13 14  1  0
 12 15  1  0
M  END
>  <target>  (1057) 
-4.2860000000000005

$$$$

     RDKit          3D

  7  7  0  0  0  0  0  0  0  0999 V2000
    2.2070   -0.2482    0.0409 C   0  0  0  0  0  0  0  0  0  0  0  0
    0.7167   -0.0796    0.0381 C   0  0  0  0  0  0  0  0  0  0  0  0
   -0.1239   -1.1995    0.0548 C   0  0  0  0  0  0  0  0  0  0  0  0
   -1.5107   -1.0432    0.0204 C   0  0  0  0  0  0  0  0  0  0  0  0
   -2.0683    0.2325   -0.0416 C   0  0  0  0  0  0  0  0  0  0  0  0
   -1.2396    1.3525   -0.0735 C   0  0  0  0  0  0  0  0  0  0  0  0
    0.1474    1.1975   -0.0391 C   0  0  0  0  0  0  0  0  0  0  0  0
  1  2  1  0
  2  3  2  0
  3  4  1  0
  4  5  2  0
  5  6  1  0
  6  7  2  0
  7  2  1  0
M  END
>  <target>  (1058) 
-2.21

$$$$

     RDKit          3D

 11 11  0  0  0  0  0  0  0  0999 V2000
   -2.5791    2.3615    0.2048 Cl  0  0  0  0  0  0  0  0  0  0  0  0
   -1.5502    0.9974    0.0722 C   0  0  0  0  0  0  0  0  0  0  0  0
   -2.0696   -0.2705   -0.0967 C   0  0  0  0  0  0  0  0  0  0  0  0
   -1.1739   -1.3257   -0.1962 C   0  0  0  0  0  0  0  0  0  0  0  0
    0.1950   -1.0692   -0.1229 C   0  0  0  0  0  0  0  0  0  0  0  0
    0.6522    0.2473    0.0500 C   0  0  0  0  0  0  0  0  0  0  0  0
   -0.2328    1.2789    0.1470 N   0  0  0  0  0  0  0  0  0  0  0  0
    2.1581    0.5379    0.1317 C   0  0  0  0  0  0  0  0  0  0  0  0
    2.9698   -0.0041   -1.3809 Cl  0  0  0  0  0  0  0  0  0  0  0  0
    2.8800   -0.3538    1.5189 Cl  0  0  0  0  0  0  0  0  0  0  0  0
    2.5319    2.2787    0.3532 Cl  0  0  0  0  0  0  0  0  0  0  0  0
  1  2  1  0
  2  3  2  0
  3  4  1  0
  4  5  2  0
  5  6  1  0
  6  7  2  0
  6  8  1  0
  8  9  1  0
  8 10  1  0
  8 11  1  0
  7  2  1  0
M  END
>  <target>  (1059) 
-3.76

$$$$

     RDKit          3D

  7  7  0  0  0  0  0  0  0  0999 V2000
   -0.5234   -1.4391   -0.3422 C   0  0  0  0  0  0  0  0  0  0  0  0
    0.9408   -1.0487   -0.5245 C   0  0  0  0  0  0  0  0  0  0  0  0
    1.5237   -0.2052    0.6076 C   0  0  0  0  0  0  0  0  0  0  0  0
    1.1154    1.2409    0.5982 C   0  0  0  0  0  0  0  0  0  0  0  0
   -0.0210    1.7685    0.1173 C   0  0  0  0  0  0  0  0  0  0  0  0
   -1.2219    1.0352   -0.4103 C   0  0  0  0  0  0  0  0  0  0  0  0
   -1.4494   -0.3498    0.1919 C   0  0  0  0  0  0  0  0  0  0  0  0
  1  2  1  0
  2  3  1  0
  3  4  1  0
  4  5  2  0
  5  6  1  0
  6  7  1  0
  7  1  1  0
M  END
>  <target>  (1060) 
-3.18

$$$$

     RDKit          3D

 12 11  0  0  0  0  0  0  0  0999 V2000
    2.7284   -2.0428    0.2349 C   0  0  0  0  0  0  0  0  0  0  0  0
    2.5403   -0.5933    0.2507 N   0  0  0  0  0  0  0  0  0  0  0  0
    3.4241    0.1151    1.1742 C   0  0  0  0  0  0  0  0  0  0  0  0
    1.6413    0.0897   -0.5811 C   0  0  0  0  0  0  0  0  0  0  0  0
    1.7069    1.7382   -0.9306 S   0  0  0  0  0  0  0  0  0  0  0  0
    0.3478   -0.8596   -1.3383 S   0  0  0  0  0  0  0  0  0  0  0  0
   -0.7903   -1.3986    0.3007 S   0  0  0  0  0  0  0  0  0  0  0  0
   -1.5981    0.1308    0.6958 C   0  0  0  0  0  0  0  0  0  0  0  0
   -1.1955    0.8719    2.1562 S   0  0  0  0  0  0  0  0  0  0  0  0
   -2.5346    0.6222   -0.2250 N   0  0  0  0  0  0  0  0  0  0  0  0
   -3.0090    2.0038   -0.1770 C   0  0  0  0  0  0  0  0  0  0  0  0
   -3.1663   -0.1920   -1.2616 C   0  0  0  0  0  0  0  0  0  0  0  0
  1  2  1  0
  2  3  1  0
  2  4  1  0
  4  5  2  0
  4  6  1  0
  6  7  1  0
  7  8  1  0
  8  9  2  0
  8 10  1  0
 10 11  1  0
 10 12  1  0
M  END
>  <target>  (1061) 
-3.9

$$$$

     RDKit          3D

 24 26  0  0  0  0  0  0  0  0999 V2000
   -1.7353   -3.3781    1.4713 C   0  0  0  0  0  0  0  0  0  0  0  0
   -1.1348   -2.3021    0.7582 O   0  0  0  0  0  0  0  0  0  0  0  0
   -1.9459   -1.4869   -0.0155 C   0  0  0  0  0  0  0  0  0  0  0  0
   -3.2828   -1.6046   -0.1105 C   0  0  0  0  0  0  0  0  0  0  0  0
   -4.0901   -0.6630   -0.9230 C   0  0  0  0  0  0  0  0  0  0  0  0
   -5.3063   -0.8250   -0.9869 O   0  0  0  0  0  0  0  0  0  0  0  0
   -3.3999    0.4975   -1.5981 C   0  0  0  0  0  0  0  0  0  0  0  0
   -1.9657    0.1372   -1.9851 C   0  0  0  0  0  0  0  0  0  0  0  0
   -1.2856    1.3203   -2.6825 C   0  0  0  0  0  0  0  0  0  0  0  0
   -1.1727   -0.4124   -0.7784 C   0  0  0  0  0  0  0  0  0  0  0  0
    0.0709   -0.9718   -1.2817 O   0  0  0  0  0  0  0  0  0  0  0  0
    1.0909   -0.3374   -0.6098 C   0  0  0  0  0  0  0  0  0  0  0  0
    2.4380   -0.6003   -0.8198 C   0  0  0  0  0  0  0  0  0  0  0  0
    2.9051   -1.8042   -1.9686 Cl  0  0  0  0  0  0  0  0  0  0  0  0
    3.3971    0.1360   -0.0992 C   0  0  0  0  0  0  0  0  0  0  0  0
    4.7122   -0.1549   -0.3559 O   0  0  0  0  0  0  0  0  0  0  0  0
    5.7077    0.5858    0.3390 C   0  0  0  0  0  0  0  0  0  0  0  0
    2.9683    1.1113    0.8209 C   0  0  0  0  0  0  0  0  0  0  0  0
    1.6055    1.3473    1.0444 C   0  0  0  0  0  0  0  0  0  0  0  0
    1.3065    2.3381    1.9299 O   0  0  0  0  0  0  0  0  0  0  0  0
    0.4706    1.9180    3.0088 C   0  0  0  0  0  0  0  0  0  0  0  0
    0.6913    0.6228    0.3020 C   0  0  0  0  0  0  0  0  0  0  0  0
   -0.7523    0.6594    0.2197 C   0  0  0  0  0  0  0  0  0  0  0  0
   -1.4806    1.4139    0.8395 O   0  0  0  0  0  0  0  0  0  0  0  0
  1  2  1  0
  2  3  1  0
  3  4  2  0
  4  5  1  0
  5  6  2  0
  5  7  1  0
  7  8  1  0
  8  9  1  0
  8 10  1  0
 10 11  1  0
 11 12  1  0
 12 13  2  0
 13 14  1  0
 13 15  1  0
 15 16  1  0
 16 17  1  0
 15 18  2  0
 18 19  1  0
 19 20  1  0
 20 21  1  0
 19 22  2  0
 22 23  1  0
 23 24  2  0
 10  3  1  0
 22 12  1  0
 23 10  1  0
M  END
>  <target>  (1062) 
-3.2460000000000004

$$$$

     RDKit          3D

 11 10  0  0  0  0  0  0  0  0999 V2000
   -5.8889    0.3517    0.1326 C   0  0  0  0  0  0  0  0  0  0  0  0
   -4.6319   -0.4839   -0.0506 C   0  0  0  0  0  0  0  0  0  0  0  0
   -3.3705    0.3743    0.0418 C   0  0  0  0  0  0  0  0  0  0  0  0
   -2.1085   -0.4699   -0.1430 C   0  0  0  0  0  0  0  0  0  0  0  0
   -0.8461    0.3889   -0.0506 C   0  0  0  0  0  0  0  0  0  0  0  0
    0.4159   -0.4554   -0.2354 C   0  0  0  0  0  0  0  0  0  0  0  0
    1.6783    0.4034   -0.1430 C   0  0  0  0  0  0  0  0  0  0  0  0
    2.9403   -0.4408   -0.3278 C   0  0  0  0  0  0  0  0  0  0  0  0
    4.2007    0.4165   -0.2356 C   0  0  0  0  0  0  0  0  0  0  0  0
    5.4618   -0.4176   -0.4187 C   0  0  0  0  0  0  0  0  0  0  0  0
    6.6083    0.4191   -0.3439 O   0  0  0  0  0  0  0  0  0  0  0  0
  1  2  1  0
  2  3  1  0
  3  4  1  0
  4  5  1  0
  5  6  1  0
  6  7  1  0
  7  8  1  0
  8  9  1  0
  9 10  1  0
 10 11  1  0
M  END
>  <target>  (1063) 
-3.63

$$$$

     RDKit          3D

  7  6  0  0  0  0  0  0  0  0999 V2000
   -1.4245    1.6914    0.4296 C   0  0  0  0  0  0  0  0  0  0  0  0
   -1.2375    0.3772   -0.3192 C   0  0  0  0  0  0  0  0  0  0  0  0
   -0.0627   -0.5145    0.1666 C   0  0  0  0  0  0  0  0  0  0  0  0
   -0.3156   -0.9793    1.6166 C   0  0  0  0  0  0  0  0  0  0  0  0
   -0.0199   -1.7737   -0.7252 C   0  0  0  0  0  0  0  0  0  0  0  0
    1.3092    0.2117    0.1284 C   0  0  0  0  0  0  0  0  0  0  0  0
    1.7246    0.7711   -1.2270 C   0  0  0  0  0  0  0  0  0  0  0  0
  1  2  1  0
  2  3  1  0
  3  4  1  0
  3  5  1  0
  3  6  1  0
  6  7  1  0
M  END
>  <target>  (1064) 
-4.23

$$$$

     RDKit          3D

 16 15  0  0  0  0  0  0  0  0999 V2000
   -4.6318   -0.5669   -2.9968 C   0  0  0  0  0  0  0  0  0  0  0  0
   -4.2621   -0.6809   -1.6092 N   0  0  0  0  0  0  0  0  0  0  0  0
   -3.4345   -1.7015   -1.1759 C   0  0  0  0  0  0  0  0  0  0  0  0
   -3.0455   -2.6036   -1.9126 O   0  0  0  0  0  0  0  0  0  0  0  0
   -3.0503   -1.5979    0.3032 C   0  0  0  0  0  0  0  0  0  0  0  0
   -2.4376   -2.8860    0.8390 C   0  0  0  0  0  0  0  0  0  0  0  0
   -1.9455   -0.1479    0.5744 S   0  0  0  0  0  0  0  0  0  0  0  0
   -0.5571   -0.5597   -0.5517 C   0  0  0  0  0  0  0  0  0  0  0  0
    0.6215    0.4056   -0.4033 C   0  0  0  0  0  0  0  0  0  0  0  0
    1.5513    0.1686    1.1433 S   0  0  0  0  0  0  0  0  0  0  0  0
    3.1457    1.4892    0.9190 P   0  0  0  0  0  0  0  0  0  0  0  0
    2.6605    2.8868    0.6599 O   0  0  0  0  0  0  0  0  0  0  0  0
    4.1018    0.9512   -0.2700 O   0  0  0  0  0  0  0  0  0  0  0  0
    5.1656    1.7944   -0.6636 C   0  0  0  0  0  0  0  0  0  0  0  0
    4.1415    1.4066    2.1921 O   0  0  0  0  0  0  0  0  0  0  0  0
    3.7016    2.0209    3.3864 C   0  0  0  0  0  0  0  0  0  0  0  0
  1  2  1  0
  2  3  1  0
  3  4  2  0
  3  5  1  0
  5  6  1  0
  5  7  1  0
  7  8  1  0
  8  9  1  0
  9 10  1  0
 10 11  1  0
 11 12  2  0
 11 13  1  0
 13 14  1  0
 11 15  1  0
 15 16  1  0
M  END
>  <target>  (1065) 
1.1440000000000001

$$$$

     RDKit          3D

 11 11  0  0  0  0  0  0  0  0999 V2000
    2.4681   -0.6830    0.2315 O   0  0  0  0  0  0  0  0  0  0  0  0
    1.1447   -0.3399    0.1713 C   0  0  0  0  0  0  0  0  0  0  0  0
    0.2302   -1.3835    0.1135 C   0  0  0  0  0  0  0  0  0  0  0  0
   -1.1352   -1.1023    0.0504 C   0  0  0  0  0  0  0  0  0  0  0  0
   -2.2132   -2.4542   -0.0193 Cl  0  0  0  0  0  0  0  0  0  0  0  0
   -1.5881    0.2285    0.0452 C   0  0  0  0  0  0  0  0  0  0  0  0
   -3.2931    0.5623   -0.0337 Cl  0  0  0  0  0  0  0  0  0  0  0  0
   -0.6541    1.2825    0.1042 C   0  0  0  0  0  0  0  0  0  0  0  0
   -1.1885    2.9381    0.0991 Cl  0  0  0  0  0  0  0  0  0  0  0  0
    0.7185    0.9921    0.1675 C   0  0  0  0  0  0  0  0  0  0  0  0
    1.9292    2.2313    0.2423 Cl  0  0  0  0  0  0  0  0  0  0  0  0
  1  2  1  0
  2  3  2  0
  3  4  1  0
  4  5  1  0
  4  6  2  0
  6  7  1  0
  6  8  1  0
  8  9  1  0
  8 10  2  0
 10 11  1  0
 10  2  1  0
M  END
>  <target>  (1066) 
-3.15

$$$$

     RDKit          3D

  5  4  0  0  0  0  0  0  0  0999 V2000
   -1.7817    0.1165    0.1168 C   0  0  0  0  0  0  0  0  0  0  0  0
   -0.3577    0.5253    0.4558 C   0  0  0  0  0  0  0  0  0  0  0  0
    0.6473   -0.5323    0.0150 C   0  0  0  0  0  0  0  0  0  0  0  0
    2.0715   -0.1511    0.3400 C   0  0  0  0  0  0  0  0  0  0  0  0
    2.4074    0.8888    0.8965 O   0  0  0  0  0  0  0  0  0  0  0  0
  1  2  1  0
  2  3  1  0
  3  4  1  0
  4  5  2  0
M  END
>  <target>  (1067) 
-0.01

$$$$

     RDKit          3D

 31 34  0  0  0  0  0  0  0  0999 V2000
   -2.3408   -2.5992   -1.8497 C   0  0  0  0  0  0  0  0  0  0  0  0
   -1.4708   -1.6872   -0.9901 C   0  0  0  0  0  0  0  0  0  0  0  0
   -0.2553   -1.1776   -1.7644 C   0  0  0  0  0  0  0  0  0  0  0  0
    0.2546    0.0583   -0.9864 C   0  0  0  0  0  0  0  0  0  0  0  0
    1.6327   -0.2400   -0.3165 C   0  0  0  0  0  0  0  0  0  0  0  0
    2.7235   -0.2092   -1.4142 C   0  0  0  0  0  0  0  0  0  0  0  0
    4.1280   -0.4290   -0.8718 C   0  0  0  0  0  0  0  0  0  0  0  0
    4.4252    0.5645    0.2185 C   0  0  0  0  0  0  0  0  0  0  0  0
    5.4736    1.4011    0.1150 C   0  0  0  0  0  0  0  0  0  0  0  0
    5.7751    2.4089    1.1526 C   0  0  0  0  0  0  0  0  0  0  0  0
    6.7593    3.1334    1.0733 O   0  0  0  0  0  0  0  0  0  0  0  0
    4.8383    2.5047    2.2879 C   0  0  0  0  0  0  0  0  0  0  0  0
    3.7927    1.6734    2.3935 C   0  0  0  0  0  0  0  0  0  0  0  0
    3.4435    0.5585    1.4058 C   0  0  0  0  0  0  0  0  0  0  0  0
    3.6599   -0.7834    2.1504 C   0  0  0  0  0  0  0  0  0  0  0  0
    1.9688    0.7455    0.8390 C   0  0  0  0  0  0  0  0  0  0  0  0
    1.9494    2.0013    0.2457 F   0  0  0  0  0  0  0  0  0  0  0  0
    0.8197    0.7797    1.8977 C   0  0  0  0  0  0  0  0  0  0  0  0
    1.1546    0.1729    3.1447 O   0  0  0  0  0  0  0  0  0  0  0  0
   -0.4898    0.1262    1.4310 C   0  0  0  0  0  0  0  0  0  0  0  0
   -0.9030    0.4659   -0.0152 C   0  0  0  0  0  0  0  0  0  0  0  0
   -1.1927    1.9796   -0.1221 C   0  0  0  0  0  0  0  0  0  0  0  0
   -2.1372   -0.3822   -0.5113 C   0  0  0  0  0  0  0  0  0  0  0  0
   -2.7409    0.2571   -1.6391 O   0  0  0  0  0  0  0  0  0  0  0  0
   -3.1924   -0.6342    0.5925 C   0  0  0  0  0  0  0  0  0  0  0  0
   -3.1761   -1.6467    1.2989 O   0  0  0  0  0  0  0  0  0  0  0  0
   -4.2649    0.4362    0.7953 C   0  0  0  0  0  0  0  0  0  0  0  0
   -5.5853   -0.1090    0.8447 O   0  0  0  0  0  0  0  0  0  0  0  0
   -5.9840   -0.7005   -0.3160 C   0  0  0  0  0  0  0  0  0  0  0  0
   -7.3612   -1.2675   -0.1664 C   0  0  0  0  0  0  0  0  0  0  0  0
   -5.3095   -0.7605   -1.3372 O   0  0  0  0  0  0  0  0  0  0  0  0
  1  2  1  0
  2  3  1  0
  3  4  1  0
  4  5  1  0
  5  6  1  0
  6  7  1  0
  7  8  1  0
  8  9  2  0
  9 10  1  0
 10 11  2  0
 10 12  1  0
 12 13  2  0
 13 14  1  0
 14 15  1  0
 14 16  1  0
 16 17  1  0
 16 18  1  0
 18 19  1  0
 18 20  1  0
 20 21  1  0
 21 22  1  0
 21 23  1  0
 23 24  1  0
 23 25  1  0
 25 26  2  0
 25 27  1  0
 27 28  1  0
 28 29  1  0
 29 30  1  0
 29 31  2  0
 14  8  1  0
 16  5  1  0
 21  4  1  0
 23  2  1  0
M  END
>  <target>  (1068) 
-4.9

$$$$

     RDKit          3D

  4  3  0  0  0  0  0  0  0  0999 V2000
   -1.8765    0.4687    0.1226 C   0  0  0  0  0  0  0  0  0  0  0  0
   -0.5497   -0.1232    0.5707 C   0  0  0  0  0  0  0  0  0  0  0  0
    0.5498    0.1232   -0.4604 C   0  0  0  0  0  0  0  0  0  0  0  0
    1.8765   -0.4687   -0.0123 C   0  0  0  0  0  0  0  0  0  0  0  0
  1  2  1  0
  2  3  1  0
  3  4  1  0
M  END
>  <target>  (1069) 
-2.57

$$$$

     RDKit          3D

  9  9  0  0  0  0  0  0  0  0999 V2000
    2.6660    0.0632   -0.0089 C   0  0  0  0  0  0  0  0  0  0  0  0
    1.5182    0.8999   -0.0926 O   0  0  0  0  0  0  0  0  0  0  0  0
    0.2993    0.2746   -0.0281 C   0  0  0  0  0  0  0  0  0  0  0  0
    0.0813   -1.0960    0.1109 C   0  0  0  0  0  0  0  0  0  0  0  0
   -1.2262   -1.5947    0.1626 C   0  0  0  0  0  0  0  0  0  0  0  0
   -2.3182   -0.7289    0.0760 C   0  0  0  0  0  0  0  0  0  0  0  0
   -2.1091    0.6410   -0.0629 C   0  0  0  0  0  0  0  0  0  0  0  0
   -0.8084    1.1272   -0.1134 C   0  0  0  0  0  0  0  0  0  0  0  0
   -0.6281    2.4774   -0.2503 O   0  0  0  0  0  0  0  0  0  0  0  0
  1  2  1  0
  2  3  1  0
  3  4  2  0
  4  5  1  0
  5  6  2  0
  6  7  1  0
  7  8  2  0
  8  9  1  0
  8  3  1  0
M  END
>  <target>  (1070) 
-1.96

$$$$

     RDKit          3D

 27 30  0  0  0  0  0  0  0  0999 V2000
   -3.3446    0.5722    2.7984 C   0  0  0  0  0  0  0  0  0  0  0  0
   -2.6413    0.9185    1.4782 C   0  0  0  0  0  0  0  0  0  0  0  0
   -1.1231    0.7441    1.6560 C   0  0  0  0  0  0  0  0  0  0  0  0
   -0.3169    1.1067    0.3916 C   0  0  0  0  0  0  0  0  0  0  0  0
    1.2062    0.9594    0.6346 C   0  0  0  0  0  0  0  0  0  0  0  0
    2.0248    1.9036   -0.2742 C   0  0  0  0  0  0  0  0  0  0  0  0
    3.2864    1.1532   -0.6878 C   0  0  0  0  0  0  0  0  0  0  0  0
    3.3499   -0.0801    0.2170 C   0  0  0  0  0  0  0  0  0  0  0  0
    3.9532    0.3439    1.4462 O   0  0  0  0  0  0  0  0  0  0  0  0
    4.2535   -1.1841   -0.3770 C   0  0  0  0  0  0  0  0  0  0  0  0
    3.9616   -2.3799   -0.3147 O   0  0  0  0  0  0  0  0  0  0  0  0
    5.5718   -0.7574   -0.9769 C   0  0  0  0  0  0  0  0  0  0  0  0
    1.8380   -0.4503    0.4378 C   0  0  0  0  0  0  0  0  0  0  0  0
    1.6713   -1.3238    1.7000 C   0  0  0  0  0  0  0  0  0  0  0  0
    1.2294   -1.1657   -0.7982 C   0  0  0  0  0  0  0  0  0  0  0  0
   -0.2997   -1.1017   -0.9157 C   0  0  0  0  0  0  0  0  0  0  0  0
   -0.9072   -1.9395    0.0587 O   0  0  0  0  0  0  0  0  0  0  0  0
   -0.8162    0.3609   -0.8744 C   0  0  0  0  0  0  0  0  0  0  0  0
   -0.2346    0.9802   -1.9633 F   0  0  0  0  0  0  0  0  0  0  0  0
   -2.3769    0.5067   -1.0562 C   0  0  0  0  0  0  0  0  0  0  0  0
   -2.7453    1.9629   -1.4467 C   0  0  0  0  0  0  0  0  0  0  0  0
   -2.8551   -0.3314   -2.2389 C   0  0  0  0  0  0  0  0  0  0  0  0
   -3.7886   -1.2876   -2.1704 C   0  0  0  0  0  0  0  0  0  0  0  0
   -4.4469   -1.6030   -0.8906 C   0  0  0  0  0  0  0  0  0  0  0  0
   -5.2960   -2.4826   -0.8167 O   0  0  0  0  0  0  0  0  0  0  0  0
   -4.0493   -0.8177    0.2968 C   0  0  0  0  0  0  0  0  0  0  0  0
   -3.1080    0.1448    0.2483 C   0  0  0  0  0  0  0  0  0  0  0  0
  1  2  1  0
  2  3  1  0
  3  4  1  0
  4  5  1  0
  5  6  1  0
  6  7  1  0
  7  8  1  0
  8  9  1  0
  8 10  1  0
 10 11  2  0
 10 12  1  0
  8 13  1  0
 13 14  1  0
 13 15  1  0
 15 16  1  0
 16 17  1  0
 16 18  1  0
 18 19  1  0
 18 20  1  0
 20 21  1  0
 20 22  1  0
 22 23  2  0
 23 24  1  0
 24 25  2  0
 24 26  1  0
 26 27  2  0
 27  2  1  0
 18  4  1  0
 13  5  1  0
 27 20  1  0
M  END
>  <target>  (1071) 
-4.099

$$$$

     RDKit          3D

  7  6  0  0  0  0  0  0  0  0999 V2000
    1.3255   -1.7314    0.4205 Cl  0  0  0  0  0  0  0  0  0  0  0  0
    0.7851   -0.0968   -0.1045 C   0  0  0  0  0  0  0  0  0  0  0  0
    1.7313    1.1090    0.8390 Cl  0  0  0  0  0  0  0  0  0  0  0  0
   -0.7474    0.1081   -0.0086 C   0  0  0  0  0  0  0  0  0  0  0  0
   -1.2149    1.7407   -0.6270 Cl  0  0  0  0  0  0  0  0  0  0  0  0
   -1.6193   -1.0895   -1.0440 Cl  0  0  0  0  0  0  0  0  0  0  0  0
   -1.3753   -0.0492    1.6678 Cl  0  0  0  0  0  0  0  0  0  0  0  0
  1  2  1  0
  2  3  1  0
  2  4  1  0
  4  5  1  0
  4  6  1  0
  4  7  1  0
M  END
>  <target>  (1072) 
-2.6

$$$$

     RDKit          3D

 16 16  0  0  0  0  0  0  0  0999 V2000
    2.5178   -2.6677   -0.2890 C   0  0  0  0  0  0  0  0  0  0  0  0
    2.2666   -1.6809    0.8341 C   0  0  0  0  0  0  0  0  0  0  0  0
    1.6195   -0.5307    0.2780 O   0  0  0  0  0  0  0  0  0  0  0  0
    1.2454    0.3934    1.1948 C   0  0  0  0  0  0  0  0  0  0  0  0
    1.4632    0.3623    2.3943 O   0  0  0  0  0  0  0  0  0  0  0  0
    0.6101    1.5353    0.5073 C   0  0  0  0  0  0  0  0  0  0  0  0
    1.0172    2.8202    0.8978 C   0  0  0  0  0  0  0  0  0  0  0  0
    0.5083    3.9468    0.2489 C   0  0  0  0  0  0  0  0  0  0  0  0
   -0.4080    3.7987   -0.7914 C   0  0  0  0  0  0  0  0  0  0  0  0
   -0.8330    2.5245   -1.1720 C   0  0  0  0  0  0  0  0  0  0  0  0
   -0.3410    1.3888   -0.5108 C   0  0  0  0  0  0  0  0  0  0  0  0
   -0.8910    0.0830   -0.9244 C   0  0  0  0  0  0  0  0  0  0  0  0
   -1.0670   -0.2360   -2.0879 O   0  0  0  0  0  0  0  0  0  0  0  0
   -1.2476   -0.6187    0.1783 O   0  0  0  0  0  0  0  0  0  0  0  0
   -1.8260   -1.9083   -0.0672 C   0  0  0  0  0  0  0  0  0  0  0  0
   -3.3266   -1.7808   -0.2482 C   0  0  0  0  0  0  0  0  0  0  0  0
  1  2  1  0
  2  3  1  0
  3  4  1  0
  4  5  2  0
  4  6  1  0
  6  7  2  0
  7  8  1  0
  8  9  2  0
  9 10  1  0
 10 11  2  0
 11 12  1  0
 12 13  2  0
 12 14  1  0
 14 15  1  0
 15 16  1  0
 11  6  1  0
M  END
>  <target>  (1073) 
-2.35

$$$$

     RDKit          3D

  5  4  0  0  0  0  0  0  0  0999 V2000
   -1.2891   -1.0057   -0.1066 C   0  0  0  0  0  0  0  0  0  0  0  0
   -0.1452   -0.1265    0.3942 C   0  0  0  0  0  0  0  0  0  0  0  0
   -0.5569    1.3471    0.3692 C   0  0  0  0  0  0  0  0  0  0  0  0
    1.1173   -0.3670   -0.4380 C   0  0  0  0  0  0  0  0  0  0  0  0
    2.2062    0.3622    0.1126 O   0  0  0  0  0  0  0  0  0  0  0  0
  1  2  1  0
  2  3  1  0
  2  4  1  0
  4  5  1  0
M  END
>  <target>  (1074) 
0.1

$$$$

     RDKit          3D

 10 10  0  0  0  0  0  0  0  0999 V2000
   -2.9767    0.1461   -1.0072 C   0  0  0  0  0  0  0  0  0  0  0  0
   -1.6724    0.3035   -0.2217 C   0  0  0  0  0  0  0  0  0  0  0  0
   -1.8747   -0.1826    1.2158 C   0  0  0  0  0  0  0  0  0  0  0  0
   -0.5385   -0.4587   -0.9351 C   0  0  0  0  0  0  0  0  0  0  0  0
    0.8323   -0.1914   -0.3603 C   0  0  0  0  0  0  0  0  0  0  0  0
    1.4641    1.0417   -0.5726 C   0  0  0  0  0  0  0  0  0  0  0  0
    2.7292    1.2908   -0.0383 C   0  0  0  0  0  0  0  0  0  0  0  0
    3.3752    0.3107    0.7124 C   0  0  0  0  0  0  0  0  0  0  0  0
    2.7570   -0.9193    0.9290 C   0  0  0  0  0  0  0  0  0  0  0  0
    1.4918   -1.1702    0.3952 C   0  0  0  0  0  0  0  0  0  0  0  0
  1  2  1  0
  2  3  1  0
  2  4  1  0
  4  5  1  0
  5  6  2  0
  6  7  1  0
  7  8  2  0
  8  9  1  0
  9 10  2  0
 10  5  1  0
M  END
>  <target>  (1075) 
-4.12

$$$$

     RDKit          3D

  3  2  0  0  0  0  0  0  0  0999 V2000
    1.7251    0.9783   -0.0009 I   0  0  0  0  0  0  0  0  0  0  0  0
   -0.0056   -0.2468    0.0039 C   0  0  0  0  0  0  0  0  0  0  0  0
   -1.6790    1.0551   -0.0310 I   0  0  0  0  0  0  0  0  0  0  0  0
  1  2  1  0
  2  3  1  0
M  END
>  <target>  (1076) 
-2.34

$$$$

     RDKit          3D

  8  7  0  0  0  0  0  0  0  0999 V2000
    3.7411    0.3146    0.7991 C   0  0  0  0  0  0  0  0  0  0  0  0
    2.5328   -0.2628    0.0778 C   0  0  0  0  0  0  0  0  0  0  0  0
    1.2236    0.1929    0.7285 C   0  0  0  0  0  0  0  0  0  0  0  0
   -0.0174   -0.3022   -0.0263 C   0  0  0  0  0  0  0  0  0  0  0  0
   -0.0832   -1.7247    0.0301 O   0  0  0  0  0  0  0  0  0  0  0  0
   -1.2961    0.2692    0.6000 C   0  0  0  0  0  0  0  0  0  0  0  0
   -2.5526   -0.1410   -0.1742 C   0  0  0  0  0  0  0  0  0  0  0  0
   -3.8052    0.4656    0.4389 C   0  0  0  0  0  0  0  0  0  0  0  0
  1  2  1  0
  2  3  1  0
  3  4  1  0
  4  5  1  0
  4  6  1  0
  6  7  1  0
  7  8  1  0
M  END
>  <target>  (1077) 
-1.4

$$$$

     RDKit          3D

  9  8  0  0  0  0  0  0  0  0999 V2000
   -4.0470    0.2215   -0.2352 C   0  0  0  0  0  0  0  0  0  0  0  0
   -2.7037    0.6873    0.3031 C   0  0  0  0  0  0  0  0  0  0  0  0
   -1.5527   -0.1349   -0.2758 C   0  0  0  0  0  0  0  0  0  0  0  0
   -0.2054    0.3361    0.2674 C   0  0  0  0  0  0  0  0  0  0  0  0
    0.9489   -0.4792   -0.3052 C   0  0  0  0  0  0  0  0  0  0  0  0
    2.1693    0.0256    0.2534 O   0  0  0  0  0  0  0  0  0  0  0  0
    3.2878   -0.6190   -0.1777 C   0  0  0  0  0  0  0  0  0  0  0  0
    3.3111   -1.5510   -0.9689 O   0  0  0  0  0  0  0  0  0  0  0  0
    4.5027   -0.0192    0.4613 C   0  0  0  0  0  0  0  0  0  0  0  0
  1  2  1  0
  2  3  1  0
  3  4  1  0
  4  5  1  0
  5  6  1  0
  6  7  1  0
  7  8  2  0
  7  9  1  0
M  END
>  <target>  (1078) 
-1.89

$$$$

     RDKit          3D

 11 11  0  0  0  0  0  0  0  0999 V2000
    2.4658   -0.5072   -0.0244 O   0  0  0  0  0  0  0  0  0  0  0  0
    1.1255   -0.1983   -0.0160 C   0  0  0  0  0  0  0  0  0  0  0  0
    0.1696   -1.2083    0.1697 C   0  0  0  0  0  0  0  0  0  0  0  0
    0.7171   -2.8382    0.3858 Cl  0  0  0  0  0  0  0  0  0  0  0  0
   -1.1903   -0.8796    0.1760 C   0  0  0  0  0  0  0  0  0  0  0  0
   -2.4284   -2.0640    0.3984 Cl  0  0  0  0  0  0  0  0  0  0  0  0
   -1.5896    0.4473   -0.0019 C   0  0  0  0  0  0  0  0  0  0  0  0
   -0.6345    1.4521   -0.1867 C   0  0  0  0  0  0  0  0  0  0  0  0
   -1.2162    3.0665   -0.3993 Cl  0  0  0  0  0  0  0  0  0  0  0  0
    0.7305    1.1359   -0.1950 C   0  0  0  0  0  0  0  0  0  0  0  0
    1.9345    2.3615   -0.4221 Cl  0  0  0  0  0  0  0  0  0  0  0  0
  1  2  1  0
  2  3  2  0
  3  4  1  0
  3  5  1  0
  5  6  1  0
  5  7  2  0
  7  8  1  0
  8  9  1  0
  8 10  2  0
 10 11  1  0
 10  2  1  0
M  END
>  <target>  (1079) 
-3.37

$$$$

     RDKit          3D

  9  9  0  0  0  0  0  0  0  0999 V2000
   -3.3194   -0.1292   -0.2402 C   0  0  0  0  0  0  0  0  0  0  0  0
   -1.8904    0.3387   -0.0148 C   0  0  0  0  0  0  0  0  0  0  0  0
   -0.8857   -0.7779   -0.3006 C   0  0  0  0  0  0  0  0  0  0  0  0
    0.5342   -0.3203   -0.0789 C   0  0  0  0  0  0  0  0  0  0  0  0
    1.2644    0.2623   -1.1234 C   0  0  0  0  0  0  0  0  0  0  0  0
    2.5729    0.7004   -0.9131 C   0  0  0  0  0  0  0  0  0  0  0  0
    3.1613    0.5647    0.3429 C   0  0  0  0  0  0  0  0  0  0  0  0
    2.4414   -0.0072    1.3902 C   0  0  0  0  0  0  0  0  0  0  0  0
    1.1328   -0.4459    1.1817 C   0  0  0  0  0  0  0  0  0  0  0  0
  1  2  1  0
  2  3  1  0
  3  4  1  0
  4  5  2  0
  5  6  1  0
  6  7  2  0
  7  8  1  0
  8  9  2  0
  9  4  1  0
M  END
>  <target>  (1080) 
-3.37

$$$$

     RDKit          3D

  8  7  0  0  0  0  0  0  0  0999 V2000
    1.3521   -0.3148    1.1309 F   0  0  0  0  0  0  0  0  0  0  0  0
    0.7253   -0.2551   -0.0778 C   0  0  0  0  0  0  0  0  0  0  0  0
    0.8258   -1.5074   -0.6094 F   0  0  0  0  0  0  0  0  0  0  0  0
    1.6341    0.8623   -1.1339 Cl  0  0  0  0  0  0  0  0  0  0  0  0
   -0.7556    0.1360    0.0889 C   0  0  0  0  0  0  0  0  0  0  0  0
   -1.3883    0.1722   -1.1177 F   0  0  0  0  0  0  0  0  0  0  0  0
   -1.4129   -0.8068    0.8237 F   0  0  0  0  0  0  0  0  0  0  0  0
   -0.9806    1.7135    0.8954 Cl  0  0  0  0  0  0  0  0  0  0  0  0
  1  2  1  0
  2  3  1  0
  2  4  1  0
  2  5  1  0
  5  6  1  0
  5  7  1  0
  5  8  1  0
M  END
>  <target>  (1081) 
-2.74

$$$$

     RDKit          3D

  5  4  0  0  0  0  0  0  0  0999 V2000
   -1.7171   -0.2339    0.3108 C   0  0  0  0  0  0  0  0  0  0  0  0
   -0.3314    0.3238    0.2599 C   0  0  0  0  0  0  0  0  0  0  0  0
    0.6963   -0.3083   -0.3237 C   0  0  0  0  0  0  0  0  0  0  0  0
    2.0425    0.2979   -0.3395 C   0  0  0  0  0  0  0  0  0  0  0  0
    2.9897   -0.2692   -0.8693 O   0  0  0  0  0  0  0  0  0  0  0  0
  1  2  1  0
  2  3  2  3
  3  4  1  0
  4  5  2  0
M  END
>  <target>  (1082) 
0.32

$$$$

     RDKit          3D

  8  7  0  0  0  0  0  0  0  0999 V2000
   -2.0461    0.6615   -1.3648 C   0  0  0  0  0  0  0  0  0  0  0  0
   -1.0664    0.0131   -0.5124 N   0  0  0  0  0  0  0  0  0  0  0  0
   -1.6018   -1.0100    0.3750 C   0  0  0  0  0  0  0  0  0  0  0  0
    0.0195    0.7883   -0.1147 C   0  0  0  0  0  0  0  0  0  0  0  0
    0.0497    2.0063   -0.2920 O   0  0  0  0  0  0  0  0  0  0  0  0
    1.0694    0.1068    0.4949 N   0  0  0  0  0  0  0  0  0  0  0  0
    1.5482   -1.1515   -0.0604 C   0  0  0  0  0  0  0  0  0  0  0  0
    2.0854    0.9228    1.1342 C   0  0  0  0  0  0  0  0  0  0  0  0
  1  2  1  0
  2  3  1  0
  2  4  1  0
  4  5  2  0
  4  6  1  0
  6  7  1  0
  6  8  1  0
M  END
>  <target>  (1083) 
0.94

$$$$

     RDKit          3D

 10 10  0  0  0  0  0  0  0  0999 V2000
   -2.3112    1.7390   -0.3753 C   0  0  0  0  0  0  0  0  0  0  0  0
   -1.1322    0.8260   -0.1791 C   0  0  0  0  0  0  0  0  0  0  0  0
    0.1664    1.3554   -0.2459 C   0  0  0  0  0  0  0  0  0  0  0  0
    1.3007    0.5471   -0.0701 C   0  0  0  0  0  0  0  0  0  0  0  0
    2.6681    1.1682   -0.1522 C   0  0  0  0  0  0  0  0  0  0  0  0
    1.1322   -0.8260    0.1791 C   0  0  0  0  0  0  0  0  0  0  0  0
    2.3112   -1.7390    0.3753 C   0  0  0  0  0  0  0  0  0  0  0  0
   -0.1664   -1.3554    0.2459 C   0  0  0  0  0  0  0  0  0  0  0  0
   -1.3007   -0.5471    0.0701 C   0  0  0  0  0  0  0  0  0  0  0  0
   -2.6681   -1.1682    0.1522 C   0  0  0  0  0  0  0  0  0  0  0  0
  1  2  1  0
  2  3  2  0
  3  4  1  0
  4  5  1  0
  4  6  2  0
  6  7  1  0
  6  8  1  0
  8  9  2  0
  9 10  1  0
  9  2  1  0
M  END
>  <target>  (1084) 
-4.59

$$$$

     RDKit          3D

 25 28  0  0  0  0  0  0  0  0999 V2000
    1.4491   -0.5356    3.1060 C   0  0  0  0  0  0  0  0  0  0  0  0
    2.4110   -0.3029    1.9813 C   0  0  0  0  0  0  0  0  0  0  0  0
    3.5709    0.0454    2.1444 O   0  0  0  0  0  0  0  0  0  0  0  0
    1.7843   -0.5024    0.7915 O   0  0  0  0  0  0  0  0  0  0  0  0
    2.5207   -0.3480   -0.4471 C   0  0  0  0  0  0  0  0  0  0  0  0
    2.9530    1.1211   -0.6315 C   0  0  0  0  0  0  0  0  0  0  0  0
    1.7806    1.8375   -1.3183 C   0  0  0  0  0  0  0  0  0  0  0  0
    0.7325    0.7632   -1.6724 C   0  0  0  0  0  0  0  0  0  0  0  0
   -0.4849    0.8239   -0.7106 C   0  0  0  0  0  0  0  0  0  0  0  0
   -1.3325    2.0907   -1.0188 C   0  0  0  0  0  0  0  0  0  0  0  0
   -2.8218    1.9450   -0.7104 C   0  0  0  0  0  0  0  0  0  0  0  0
   -3.0128    1.0511    0.4774 C   0  0  0  0  0  0  0  0  0  0  0  0
   -3.4986    1.5265    1.6355 C   0  0  0  0  0  0  0  0  0  0  0  0
   -3.6608    0.6431    2.8122 C   0  0  0  0  0  0  0  0  0  0  0  0
   -4.0777    1.1129    3.8674 O   0  0  0  0  0  0  0  0  0  0  0  0
   -3.3677   -0.8244    2.6425 C   0  0  0  0  0  0  0  0  0  0  0  0
   -2.2383   -1.0334    1.6435 C   0  0  0  0  0  0  0  0  0  0  0  0
   -2.5414   -0.3810    0.2809 C   0  0  0  0  0  0  0  0  0  0  0  0
   -1.3571   -0.4521   -0.7473 C   0  0  0  0  0  0  0  0  0  0  0  0
   -0.5210   -1.7295   -0.6020 C   0  0  0  0  0  0  0  0  0  0  0  0
    0.6260   -1.7996   -1.5974 C   0  0  0  0  0  0  0  0  0  0  0  0
    1.5414   -0.5596   -1.6646 C   0  0  0  0  0  0  0  0  0  0  0  0
    2.3220   -0.6681   -3.0117 C   0  0  0  0  0  0  0  0  0  0  0  0
    3.6524   -1.2975   -0.4853 C   0  0  0  0  0  0  0  0  0  0  0  0
    4.5734   -2.0690   -0.5032 C   0  0  0  0  0  0  0  0  0  0  0  0
  1  2  1  0
  2  3  2  0
  2  4  1  0
  4  5  1  0
  5  6  1  0
  6  7  1  0
  7  8  1  0
  8  9  1  0
  9 10  1  0
 10 11  1  0
 11 12  1  0
 12 13  2  0
 13 14  1  0
 14 15  2  0
 14 16  1  0
 16 17  1  0
 17 18  1  0
 18 19  1  0
 19 20  1  0
 20 21  1  0
 21 22  1  0
 22 23  1  0
  5 24  1  0
 24 25  3  0
 18 12  1  0
 19  9  1  0
 22  5  1  0
 22  8  1  0
M  END
>  <target>  (1085) 
-4.8

$$$$

     RDKit          3D

 19 20  0  0  0  0  0  0  0  0999 V2000
   -2.3161   -2.8310   -1.5904 C   0  0  0  0  0  0  0  0  0  0  0  0
   -2.3170   -2.0955   -0.2656 C   0  0  0  0  0  0  0  0  0  0  0  0
   -1.9016   -0.7580   -0.4901 O   0  0  0  0  0  0  0  0  0  0  0  0
   -1.2973    0.1316    0.7260 P   0  0  0  0  0  0  0  0  0  0  0  0
   -2.0821   -0.1881    2.4835 S   0  0  0  0  0  0  0  0  0  0  0  0
   -1.6286    1.6005    0.1128 O   0  0  0  0  0  0  0  0  0  0  0  0
   -2.9794    2.0089   -0.0197 C   0  0  0  0  0  0  0  0  0  0  0  0
   -3.0381    3.1632   -0.9994 C   0  0  0  0  0  0  0  0  0  0  0  0
    0.3716    0.0381    0.6040 N   0  0  0  0  0  0  0  0  0  0  0  0
    1.0824   -1.0541    0.2198 C   0  0  0  0  0  0  0  0  0  0  0  0
    0.7078   -2.1568   -0.1262 O   0  0  0  0  0  0  0  0  0  0  0  0
    2.4947   -0.6989    0.3206 C   0  0  0  0  0  0  0  0  0  0  0  0
    3.6294   -1.4294    0.0263 C   0  0  0  0  0  0  0  0  0  0  0  0
    4.8630   -0.8077    0.2442 C   0  0  0  0  0  0  0  0  0  0  0  0
    4.9306    0.5083    0.7472 C   0  0  0  0  0  0  0  0  0  0  0  0
    3.7658    1.2242    1.0406 C   0  0  0  0  0  0  0  0  0  0  0  0
    2.5613    0.5882    0.8126 C   0  0  0  0  0  0  0  0  0  0  0  0
    1.1913    1.0436    1.0204 C   0  0  0  0  0  0  0  0  0  0  0  0
    0.9204    2.1239    1.5061 O   0  0  0  0  0  0  0  0  0  0  0  0
  1  2  1  0
  2  3  1  0
  3  4  1  0
  4  5  2  0
  4  6  1  0
  6  7  1  0
  7  8  1  0
  4  9  1  0
  9 10  1  0
 10 11  2  0
 10 12  1  0
 12 13  2  0
 13 14  1  0
 14 15  2  0
 15 16  1  0
 16 17  2  0
 17 18  1  0
 18 19  2  0
 17 12  1  0
 18  9  1  0
M  END
>  <target>  (1086) 
-3.35

$$$$

     RDKit          3D

 16 17  0  0  0  0  0  0  0  0999 V2000
    2.6630    1.3859   -0.2548 C   0  0  0  0  0  0  0  0  0  0  0  0
    4.0546    1.3901   -0.1264 C   0  0  0  0  0  0  0  0  0  0  0  0
    4.7152    0.2504    0.3228 C   0  0  0  0  0  0  0  0  0  0  0  0
    3.9835   -0.8911    0.6405 C   0  0  0  0  0  0  0  0  0  0  0  0
    2.5906   -0.8954    0.5120 C   0  0  0  0  0  0  0  0  0  0  0  0
    1.9175    0.2438    0.0677 C   0  0  0  0  0  0  0  0  0  0  0  0
    0.5178    0.3203   -0.0966 N   0  0  0  0  0  0  0  0  0  0  0  0
   -0.4193   -0.6357    0.2489 C   0  0  0  0  0  0  0  0  0  0  0  0
   -0.2098   -1.6863    0.8496 O   0  0  0  0  0  0  0  0  0  0  0  0
   -1.8353   -0.3135   -0.0923 C   0  0  0  0  0  0  0  0  0  0  0  0
   -2.8729   -0.8426    0.6909 C   0  0  0  0  0  0  0  0  0  0  0  0
   -2.6560   -1.6765    1.7562 O   0  0  0  0  0  0  0  0  0  0  0  0
   -4.2028   -0.5357    0.4106 C   0  0  0  0  0  0  0  0  0  0  0  0
   -4.5136    0.2839   -0.6735 C   0  0  0  0  0  0  0  0  0  0  0  0
   -3.4952    0.7886   -1.4816 C   0  0  0  0  0  0  0  0  0  0  0  0
   -2.1594    0.4890   -1.1975 C   0  0  0  0  0  0  0  0  0  0  0  0
  1  2  2  0
  2  3  1  0
  3  4  2  0
  4  5  1  0
  5  6  2  0
  6  7  1  0
  7  8  1  0
  8  9  2  0
  8 10  1  0
 10 11  2  0
 11 12  1  0
 11 13  1  0
 13 14  2  0
 14 15  1  0
 15 16  2  0
  6  1  1  0
 16 10  1  0
M  END
>  <target>  (1087) 
-3.59

$$$$

     RDKit          3D

 12 11  0  0  0  0  0  0  0  0999 V2000
   -1.4372   -1.9806   -1.5594 C   0  0  0  0  0  0  0  0  0  0  0  0
   -1.5715   -1.8088   -0.0533 C   0  0  0  0  0  0  0  0  0  0  0  0
   -0.6738   -0.7604    0.4655 N   0  0  0  0  0  0  0  0  0  0  0  0
   -1.2675    0.5892    0.4894 C   0  0  0  0  0  0  0  0  0  0  0  0
   -1.9987    0.8651    1.7954 C   0  0  0  0  0  0  0  0  0  0  0  0
    0.6299   -1.0566    0.9088 C   0  0  0  0  0  0  0  0  0  0  0  0
    1.3260   -2.5942    0.9335 S   0  0  0  0  0  0  0  0  0  0  0  0
    1.5669    0.2945    1.5631 S   0  0  0  0  0  0  0  0  0  0  0  0
    2.8056    0.5143    0.2518 C   0  0  0  0  0  0  0  0  0  0  0  0
    2.2652    1.3271   -0.8897 C   0  0  0  0  0  0  0  0  0  0  0  0
    1.5520    0.4376   -2.1940 Cl  0  0  0  0  0  0  0  0  0  0  0  0
    2.3677    2.6596   -0.9895 C   0  0  0  0  0  0  0  0  0  0  0  0
  1  2  1  0
  2  3  1  0
  3  4  1  0
  4  5  1  0
  3  6  1  0
  6  7  2  0
  6  8  1  0
  8  9  1  0
  9 10  1  0
 10 11  1  0
 10 12  2  0
M  END
>  <target>  (1088) 
-3.39

$$$$

     RDKit          3D

  3  2  0  0  0  0  0  0  0  0999 V2000
    1.7888    1.0392   -0.2399 Cl  0  0  0  0  0  0  0  0  0  0  0  0
    0.6626   -0.3130    0.0043 C   0  0  0  0  0  0  0  0  0  0  0  0
   -0.7679    0.1837    0.0189 C   0  0  0  0  0  0  0  0  0  0  0  0
  1  2  1  0
  2  3  1  0
M  END
>  <target>  (1089) 
-1.06

$$$$

     RDKit          3D

 20 20  0  0  0  0  0  0  0  0999 V2000
    3.7255    2.4480    1.1385 C   0  0  0  0  0  0  0  0  0  0  0  0
    2.3944    1.7415    1.2101 C   0  0  0  0  0  0  0  0  0  0  0  0
    1.5814    2.0228    2.0831 O   0  0  0  0  0  0  0  0  0  0  0  0
    2.2609    0.7763    0.2271 N   0  0  0  0  0  0  0  0  0  0  0  0
    1.1545   -0.0744   -0.0125 C   0  0  0  0  0  0  0  0  0  0  0  0
   -0.0173   -0.0129    0.7512 C   0  0  0  0  0  0  0  0  0  0  0  0
   -1.1029   -0.8585    0.4902 C   0  0  0  0  0  0  0  0  0  0  0  0
   -2.2924   -0.6854    1.2654 N   0  0  0  0  0  0  0  0  0  0  0  0
   -3.5369    0.2813    0.5939 S   0  0  0  0  0  0  0  0  0  0  0  0
   -3.8689   -0.2497   -0.7164 O   0  0  0  0  0  0  0  0  0  0  0  0
   -4.5586    0.3002    1.6295 O   0  0  0  0  0  0  0  0  0  0  0  0
   -2.7915    1.9841    0.4360 C   0  0  0  0  0  0  0  0  0  0  0  0
   -1.8713    2.0622   -0.5657 F   0  0  0  0  0  0  0  0  0  0  0  0
   -2.1583    2.3540    1.5861 F   0  0  0  0  0  0  0  0  0  0  0  0
   -3.7332    2.9355    0.1808 F   0  0  0  0  0  0  0  0  0  0  0  0
   -1.0282   -1.8097   -0.5298 C   0  0  0  0  0  0  0  0  0  0  0  0
   -2.1376   -2.7758   -0.8401 C   0  0  0  0  0  0  0  0  0  0  0  0
    0.1387   -1.8635   -1.3064 C   0  0  0  0  0  0  0  0  0  0  0  0
    1.2303   -1.0094   -1.0638 C   0  0  0  0  0  0  0  0  0  0  0  0
    2.4437   -1.1403   -1.9461 C   0  0  0  0  0  0  0  0  0  0  0  0
  1  2  1  0
  2  3  2  0
  2  4  1  0
  4  5  1  0
  5  6  2  0
  6  7  1  0
  7  8  1  0
  8  9  1  0
  9 10  2  0
  9 11  2  0
  9 12  1  0
 12 13  1  0
 12 14  1  0
 12 15  1  0
  7 16  2  0
 16 17  1  0
 16 18  1  0
 18 19  2  0
 19 20  1  0
 19  5  1  0
M  END
>  <target>  (1090) 
-3.24

$$$$

     RDKit          3D

 21 23  0  0  0  0  0  0  0  0999 V2000
   -2.6158   -2.3351    1.9064 O   0  0  0  0  0  0  0  0  0  0  0  0
   -2.4051   -1.3463    1.2067 C   0  0  0  0  0  0  0  0  0  0  0  0
   -1.0138   -0.8688    0.9954 C   0  0  0  0  0  0  0  0  0  0  0  0
    0.0053   -1.7381    1.0674 C   0  0  0  0  0  0  0  0  0  0  0  0
    1.4016   -1.3810    0.9415 C   0  0  0  0  0  0  0  0  0  0  0  0
    1.8966   -0.5704   -0.0075 C   0  0  0  0  0  0  0  0  0  0  0  0
    3.3218   -0.2327   -0.1410 C   0  0  0  0  0  0  0  0  0  0  0  0
    4.3413   -1.1865    0.0814 C   0  0  0  0  0  0  0  0  0  0  0  0
    5.6915   -0.8540   -0.0807 C   0  0  0  0  0  0  0  0  0  0  0  0
    5.9914    0.4302   -0.4752 C   0  0  0  0  0  0  0  0  0  0  0  0
    7.2391    0.9276   -0.6847 O   0  0  0  0  0  0  0  0  0  0  0  0
    6.9290    2.2812   -1.0759 C   0  0  0  0  0  0  0  0  0  0  0  0
    5.5142    2.5632   -1.0966 O   0  0  0  0  0  0  0  0  0  0  0  0
    5.0082    1.3613   -0.7089 C   0  0  0  0  0  0  0  0  0  0  0  0
    3.6696    1.0617   -0.5570 C   0  0  0  0  0  0  0  0  0  0  0  0
   -3.4201   -0.6019    0.6064 N   0  0  0  0  0  0  0  0  0  0  0  0
   -3.2180    0.1505   -0.6364 C   0  0  0  0  0  0  0  0  0  0  0  0
   -4.2341    1.2773   -0.7971 C   0  0  0  0  0  0  0  0  0  0  0  0
   -5.6613    0.7640   -0.6443 C   0  0  0  0  0  0  0  0  0  0  0  0
   -5.8186    0.0299    0.6821 C   0  0  0  0  0  0  0  0  0  0  0  0
   -4.7843   -1.0816    0.8286 C   0  0  0  0  0  0  0  0  0  0  0  0
  1  2  2  0
  2  3  1  0
  3  4  2  3
  4  5  1  0
  5  6  2  3
  6  7  1  0
  7  8  2  0
  8  9  1  0
  9 10  2  0
 10 11  1  0
 11 12  1  0
 12 13  1  0
 13 14  1  0
 14 15  2  0
  2 16  1  0
 16 17  1  0
 17 18  1  0
 18 19  1  0
 19 20  1  0
 20 21  1  0
 14 10  1  0
 15  7  1  0
 21 16  1  0
M  END
>  <target>  (1091) 
-3.46

$$$$

     RDKit          3D

  5  4  0  0  0  0  0  0  0  0999 V2000
   -2.0531    0.4004    0.1049 C   0  0  0  0  0  0  0  0  0  0  0  0
   -0.9576   -0.4995   -0.4450 C   0  0  0  0  0  0  0  0  0  0  0  0
    0.0947   -0.7735    0.5904 C   0  0  0  0  0  0  0  0  0  0  0  0
    1.3656   -0.3406    0.6026 C   0  0  0  0  0  0  0  0  0  0  0  0
    2.0385    0.5476   -0.3930 C   0  0  0  0  0  0  0  0  0  0  0  0
  1  2  1  0
  2  3  1  0
  3  4  2  0
  4  5  1  0
M  END
>  <target>  (1092) 
-2.54

$$$$

     RDKit          3D

 14 13  0  0  0  0  0  0  0  0999 V2000
    4.5557    0.6275    1.1702 C   0  0  0  0  0  0  0  0  0  0  0  0
    3.1297    0.4870    1.1219 N   0  0  0  0  0  0  0  0  0  0  0  0
    2.2719    1.4789    1.5188 C   0  0  0  0  0  0  0  0  0  0  0  0
    2.6212    2.5023    2.0959 O   0  0  0  0  0  0  0  0  0  0  0  0
    0.9480    1.2399    1.2021 O   0  0  0  0  0  0  0  0  0  0  0  0
    0.7701    0.0144    0.5155 N   0  0  0  0  0  0  0  0  0  0  0  0
   -0.4764   -0.1725    0.1711 C   0  0  0  0  0  0  0  0  0  0  0  0
   -1.5873    0.8365    0.4607 C   0  0  0  0  0  0  0  0  0  0  0  0
   -1.7786    1.9575   -0.9590 S   0  0  0  0  0  0  0  0  0  0  0  0
   -2.9608    3.1148   -0.2297 C   0  0  0  0  0  0  0  0  0  0  0  0
   -0.7913   -1.4725   -0.6248 C   0  0  0  0  0  0  0  0  0  0  0  0
   -2.2882   -1.8020   -0.7105 C   0  0  0  0  0  0  0  0  0  0  0  0
   -0.0915   -2.6589    0.0687 C   0  0  0  0  0  0  0  0  0  0  0  0
   -0.2291   -1.3224   -2.0475 C   0  0  0  0  0  0  0  0  0  0  0  0
  1  2  1  0
  2  3  1  0
  3  4  2  0
  3  5  1  0
  5  6  1  0
  6  7  2  3
  7  8  1  0
  8  9  1  0
  9 10  1  0
  7 11  1  0
 11 12  1  0
 11 13  1  0
 11 14  1  0
M  END
>  <target>  (1093) 
-1.62

$$$$

     RDKit          3D

 16 17  0  0  0  0  0  0  0  0999 V2000
    4.7870   -0.6148    0.9281 O   0  0  0  0  0  0  0  0  0  0  0  0
    3.5926   -0.4237    0.7246 C   0  0  0  0  0  0  0  0  0  0  0  0
    3.0502    0.8207    0.8033 N   0  0  0  0  0  0  0  0  0  0  0  0
    1.9432    1.1956    0.0908 C   0  0  0  0  0  0  0  0  0  0  0  0
    1.8150    2.3616   -0.2730 O   0  0  0  0  0  0  0  0  0  0  0  0
    0.9081    0.0927   -0.1556 C   0  0  0  0  0  0  0  0  0  0  0  0
    0.0345    0.4802   -1.3760 C   0  0  0  0  0  0  0  0  0  0  0  0
   -1.0571    1.5300   -1.1277 C   0  0  0  0  0  0  0  0  0  0  0  0
   -2.4747    0.9628   -1.0378 C   0  0  0  0  0  0  0  0  0  0  0  0
   -2.7985    0.1437    0.2119 C   0  0  0  0  0  0  0  0  0  0  0  0
   -2.0746   -1.1993    0.2939 C   0  0  0  0  0  0  0  0  0  0  0  0
   -0.8867   -1.2305    1.2523 C   0  0  0  0  0  0  0  0  0  0  0  0
    0.1295   -0.0882    1.1741 C   0  0  0  0  0  0  0  0  0  0  0  0
    1.6641   -1.2025   -0.4542 C   0  0  0  0  0  0  0  0  0  0  0  0
    1.3159   -2.0326   -1.2894 O   0  0  0  0  0  0  0  0  0  0  0  0
    2.7742   -1.4283    0.3130 N   0  0  0  0  0  0  0  0  0  0  0  0
  1  2  2  0
  2  3  1  0
  3  4  1  0
  4  5  2  0
  4  6  1  0
  6  7  1  0
  7  8  1  0
  8  9  1  0
  9 10  1  0
 10 11  1  0
 11 12  1  0
 12 13  1  0
  6 14  1  0
 14 15  2  0
 14 16  1  0
 13  6  1  0
 16  2  1  0
M  END
>  <target>  (1094) 
-2.9819999999999998

$$$$

     RDKit          3D

 19 19  0  0  0  0  0  0  0  0999 V2000
   -0.9587   -1.1546   -0.1582 C   0  0  0  0  0  0  0  0  0  0  0  0
   -2.0504   -2.2284    0.0036 C   0  0  0  0  0  0  0  0  0  0  0  0
   -1.5182   -3.6774   -0.0787 C   0  0  0  0  0  0  0  0  0  0  0  0
   -2.7333   -2.0721    1.3796 C   0  0  0  0  0  0  0  0  0  0  0  0
   -3.1072   -2.0680   -1.1107 C   0  0  0  0  0  0  0  0  0  0  0  0
   -1.3022    0.2192   -0.1064 C   0  0  0  0  0  0  0  0  0  0  0  0
   -0.3567    1.2563   -0.2506 C   0  0  0  0  0  0  0  0  0  0  0  0
   -0.7381    2.7462   -0.1927 C   0  0  0  0  0  0  0  0  0  0  0  0
    0.0199    3.4305    0.9657 C   0  0  0  0  0  0  0  0  0  0  0  0
   -2.2452    3.0008    0.0356 C   0  0  0  0  0  0  0  0  0  0  0  0
   -0.3573    3.4310   -1.5234 C   0  0  0  0  0  0  0  0  0  0  0  0
    0.9810    0.8819   -0.4506 C   0  0  0  0  0  0  0  0  0  0  0  0
    1.3388   -0.4640   -0.4829 C   0  0  0  0  0  0  0  0  0  0  0  0
    2.6647   -0.8365   -0.7346 O   0  0  0  0  0  0  0  0  0  0  0  0
    3.5432   -0.5920    0.3088 C   0  0  0  0  0  0  0  0  0  0  0  0
    3.2627   -0.1172    1.4006 O   0  0  0  0  0  0  0  0  0  0  0  0
    4.7999   -0.9824   -0.0663 N   0  0  0  0  0  0  0  0  0  0  0  0
    5.9034   -0.9808    0.8542 C   0  0  0  0  0  0  0  0  0  0  0  0
    0.3897   -1.4756   -0.3577 C   0  0  0  0  0  0  0  0  0  0  0  0
  1  2  1  0
  2  3  1  0
  2  4  1  0
  2  5  1  0
  1  6  2  0
  6  7  1  0
  7  8  1  0
  8  9  1  0
  8 10  1  0
  8 11  1  0
  7 12  2  0
 12 13  1  0
 13 14  1  0
 14 15  1  0
 15 16  2  0
 15 17  1  0
 17 18  1  0
 13 19  2  0
 19  1  1  0
M  END
>  <target>  (1095) 
-4.24

$$$$

     RDKit          3D

 21 23  0  0  0  0  0  0  0  0999 V2000
    4.6401    2.4055    1.7644 O   0  0  0  0  0  0  0  0  0  0  0  0
    3.9429    1.5034    1.0165 C   0  0  0  0  0  0  0  0  0  0  0  0
    4.5960    0.5629    0.2243 C   0  0  0  0  0  0  0  0  0  0  0  0
    3.8393   -0.3319   -0.5285 C   0  0  0  0  0  0  0  0  0  0  0  0
    4.5317   -1.2228   -1.3042 O   0  0  0  0  0  0  0  0  0  0  0  0
    2.4410   -0.2895   -0.4804 C   0  0  0  0  0  0  0  0  0  0  0  0
    1.6118   -1.1863   -1.3058 C   0  0  0  0  0  0  0  0  0  0  0  0
    2.1481   -2.0261   -2.0251 O   0  0  0  0  0  0  0  0  0  0  0  0
    0.1273   -0.9670   -1.2682 C   0  0  0  0  0  0  0  0  0  0  0  0
   -0.2456   -0.4763    0.1241 C   0  0  0  0  0  0  0  0  0  0  0  0
    0.4372    0.7495    0.4367 O   0  0  0  0  0  0  0  0  0  0  0  0
    1.7993    0.6452    0.3342 C   0  0  0  0  0  0  0  0  0  0  0  0
    2.5527    1.5552    1.0733 C   0  0  0  0  0  0  0  0  0  0  0  0
   -1.7419   -0.2406    0.2200 C   0  0  0  0  0  0  0  0  0  0  0  0
   -2.3266    0.9602   -0.2277 C   0  0  0  0  0  0  0  0  0  0  0  0
   -3.7092    1.1592   -0.1554 C   0  0  0  0  0  0  0  0  0  0  0  0
   -4.5114    0.1506    0.3606 C   0  0  0  0  0  0  0  0  0  0  0  0
   -5.8684    0.2835    0.4574 O   0  0  0  0  0  0  0  0  0  0  0  0
   -3.9450   -1.0427    0.7982 C   0  0  0  0  0  0  0  0  0  0  0  0
   -4.7416   -2.0322    1.2995 O   0  0  0  0  0  0  0  0  0  0  0  0
   -2.5738   -1.2489    0.7321 C   0  0  0  0  0  0  0  0  0  0  0  0
  1  2  1  0
  2  3  2  0
  3  4  1  0
  4  5  1  0
  4  6  2  0
  6  7  1  0
  7  8  2  0
  7  9  1  0
  9 10  1  0
 10 11  1  0
 11 12  1  0
 12 13  2  0
 10 14  1  0
 14 15  2  0
 15 16  1  0
 16 17  2  0
 17 18  1  0
 17 19  1  0
 19 20  1  0
 19 21  2  0
 12  6  1  0
 13  2  1  0
 21 14  1  0
M  END
>  <target>  (1096) 
-3.62

$$$$

     RDKit          3D

 14 15  0  0  0  0  0  0  0  0999 V2000
   -0.0038   -2.5038   -0.1970 O   0  0  0  0  0  0  0  0  0  0  0  0
   -0.0019   -1.2844   -0.0473 C   0  0  0  0  0  0  0  0  0  0  0  0
   -1.2966   -0.5650    0.0587 C   0  0  0  0  0  0  0  0  0  0  0  0
   -2.3695   -1.2116    0.6834 C   0  0  0  0  0  0  0  0  0  0  0  0
   -3.6046   -0.5712    0.7920 C   0  0  0  0  0  0  0  0  0  0  0  0
   -3.7741    0.7095    0.2661 C   0  0  0  0  0  0  0  0  0  0  0  0
   -2.7136    1.3487   -0.3766 C   0  0  0  0  0  0  0  0  0  0  0  0
   -1.4757    0.7119   -0.4874 C   0  0  0  0  0  0  0  0  0  0  0  0
    1.2949   -0.5646    0.0233 C   0  0  0  0  0  0  0  0  0  0  0  0
    2.3661   -1.0440   -0.7396 C   0  0  0  0  0  0  0  0  0  0  0  0
    3.6031   -0.4000   -0.6905 C   0  0  0  0  0  0  0  0  0  0  0  0
    3.7763    0.7150    0.1294 C   0  0  0  0  0  0  0  0  0  0  0  0
    2.7174    1.1829    0.9081 C   0  0  0  0  0  0  0  0  0  0  0  0
    1.4776    0.5418    0.8620 C   0  0  0  0  0  0  0  0  0  0  0  0
  1  2  2  0
  2  3  1  0
  3  4  2  0
  4  5  1  0
  5  6  2  0
  6  7  1  0
  7  8  2  0
  2  9  1  0
  9 10  2  0
 10 11  1  0
 11 12  2  0
 12 13  1  0
 13 14  2  0
  8  3  1  0
 14  9  1  0
M  END
>  <target>  (1097) 
-3.12

$$$$

     RDKit          3D

 20 19  0  0  0  0  0  0  0  0999 V2000
    9.2155    0.0222   -1.0926 C   0  0  0  0  0  0  0  0  0  0  0  0
    8.2806    1.2217   -1.0793 C   0  0  0  0  0  0  0  0  0  0  0  0
    7.1980    1.1410   -0.0009 C   0  0  0  0  0  0  0  0  0  0  0  0
    6.2022    0.0008   -0.2255 C   0  0  0  0  0  0  0  0  0  0  0  0
    5.0821    0.0299    0.8181 C   0  0  0  0  0  0  0  0  0  0  0  0
    4.0861   -1.1097    0.5931 C   0  0  0  0  0  0  0  0  0  0  0  0
    3.0009   -1.1908    1.6707 C   0  0  0  0  0  0  0  0  0  0  0  0
    2.1079    0.0464    1.8104 C   0  0  0  0  0  0  0  0  0  0  0  0
    1.3855    0.4925    0.5357 C   0  0  0  0  0  0  0  0  0  0  0  0
    0.4452   -0.5726   -0.0343 C   0  0  0  0  0  0  0  0  0  0  0  0
   -0.3318   -0.0342   -1.2382 C   0  0  0  0  0  0  0  0  0  0  0  0
   -1.2008   -1.0918   -1.9259 C   0  0  0  0  0  0  0  0  0  0  0  0
   -2.2715   -1.7493   -1.0497 C   0  0  0  0  0  0  0  0  0  0  0  0
   -3.2790   -0.7543   -0.4682 C   0  0  0  0  0  0  0  0  0  0  0  0
   -4.3912   -1.4787    0.2949 C   0  0  0  0  0  0  0  0  0  0  0  0
   -5.3624   -0.5291    1.0024 C   0  0  0  0  0  0  0  0  0  0  0  0
   -6.1841    0.3308    0.0384 C   0  0  0  0  0  0  0  0  0  0  0  0
   -7.2188    1.1696    0.7936 C   0  0  0  0  0  0  0  0  0  0  0  0
   -7.9950    2.1315   -0.1087 C   0  0  0  0  0  0  0  0  0  0  0  0
   -8.8782    1.4289   -1.1281 C   0  0  0  0  0  0  0  0  0  0  0  0
  1  2  1  0
  2  3  1  0
  3  4  1  0
  4  5  1  0
  5  6  1  0
  6  7  1  0
  7  8  1  0
  8  9  1  0
  9 10  1  0
 10 11  1  0
 11 12  1  0
 12 13  1  0
 13 14  1  0
 14 15  1  0
 15 16  1  0
 16 17  1  0
 17 18  1  0
 18 19  1  0
 19 20  1  0
M  END
>  <target>  (1098) 
-8.172

$$$$

     RDKit          3D

 14 15  0  0  0  0  0  0  0  0999 V2000
   -0.4149    0.7249    0.1913 N   0  0  0  0  0  0  0  0  0  0  0  0
    0.4801    0.0442   -0.5912 N   0  0  0  0  0  0  0  0  0  0  0  0
    1.8329   -0.1132   -0.2161 C   0  0  0  0  0  0  0  0  0  0  0  0
    2.7723   -0.5267   -1.1701 C   0  0  0  0  0  0  0  0  0  0  0  0
    4.1076   -0.7397   -0.8159 C   0  0  0  0  0  0  0  0  0  0  0  0
    4.5150   -0.5644    0.5045 C   0  0  0  0  0  0  0  0  0  0  0  0
    3.5857   -0.1884    1.4712 C   0  0  0  0  0  0  0  0  0  0  0  0
    2.2516    0.0243    1.1133 C   0  0  0  0  0  0  0  0  0  0  0  0
   -1.8028    0.4676    0.1367 C   0  0  0  0  0  0  0  0  0  0  0  0
   -2.3119   -0.7350   -0.3694 C   0  0  0  0  0  0  0  0  0  0  0  0
   -3.6857   -0.9913   -0.3648 C   0  0  0  0  0  0  0  0  0  0  0  0
   -4.5675   -0.0544    0.1684 C   0  0  0  0  0  0  0  0  0  0  0  0
   -4.0744    1.1314    0.7077 C   0  0  0  0  0  0  0  0  0  0  0  0
   -2.6996    1.3841    0.7020 C   0  0  0  0  0  0  0  0  0  0  0  0
  1  2  1  0
  2  3  1  0
  3  4  2  0
  4  5  1  0
  5  6  2  0
  6  7  1  0
  7  8  2  0
  1  9  1  0
  9 10  2  0
 10 11  1  0
 11 12  2  0
 12 13  1  0
 13 14  2  0
  8  3  1  0
 14  9  1  0
M  END
>  <target>  (1099) 
-2.92

$$$$

     RDKit          3D

  7  6  0  0  0  0  0  0  0  0999 V2000
   -2.4631   -0.3498    0.8681 C   0  0  0  0  0  0  0  0  0  0  0  0
   -1.2906   -0.8195    0.0184 C   0  0  0  0  0  0  0  0  0  0  0  0
    0.0348   -0.0842    0.3208 C   0  0  0  0  0  0  0  0  0  0  0  0
    1.1624   -0.7560   -0.4950 C   0  0  0  0  0  0  0  0  0  0  0  0
    2.5482   -0.1938   -0.2116 C   0  0  0  0  0  0  0  0  0  0  0  0
   -0.0656    1.4295    0.0689 C   0  0  0  0  0  0  0  0  0  0  0  0
   -0.4171    1.7201   -1.2762 O   0  0  0  0  0  0  0  0  0  0  0  0
  1  2  1  0
  2  3  1  0
  3  4  1  0
  4  5  1  0
  3  6  1  0
  6  7  1  0
M  END
>  <target>  (1100) 
-1.17

$$$$

     RDKit          3D

  7  7  0  0  0  0  0  0  0  0999 V2000
   -1.8501   -1.3201    0.0615 O   0  0  0  0  0  0  0  0  0  0  0  0
   -0.7277   -0.5465    0.0199 C   0  0  0  0  0  0  0  0  0  0  0  0
    0.4785   -1.1713   -0.2522 C   0  0  0  0  0  0  0  0  0  0  0  0
    1.6144   -0.3834   -0.2935 C   0  0  0  0  0  0  0  0  0  0  0  0
    1.6099    0.9521   -0.0842 N   0  0  0  0  0  0  0  0  0  0  0  0
    0.4134    1.5224    0.1780 C   0  0  0  0  0  0  0  0  0  0  0  0
   -0.7794    0.8215    0.2411 C   0  0  0  0  0  0  0  0  0  0  0  0
  1  2  1  0
  2  3  2  0
  3  4  1  0
  4  5  2  0
  5  6  1  0
  6  7  2  0
  7  2  1  0
M  END
>  <target>  (1101) 
1.02

$$$$

     RDKit          3D

  4  3  0  0  0  0  0  0  0  0999 V2000
   -1.4307    1.3149   -0.9053 Cl  0  0  0  0  0  0  0  0  0  0  0  0
   -0.6114   -0.1265   -0.4769 C   0  0  0  0  0  0  0  0  0  0  0  0
    0.5926   -0.1947    0.0881 C   0  0  0  0  0  0  0  0  0  0  0  0
    1.5747    1.1448    0.5051 Cl  0  0  0  0  0  0  0  0  0  0  0  0
  1  2  1  0
  2  3  2  0
  3  4  1  0
M  END
>  <target>  (1102) 
-1.3

$$$$

     RDKit          3D

  6  6  0  0  0  0  0  0  0  0999 V2000
    2.0688    0.3317   -0.4770 C   0  0  0  0  0  0  0  0  0  0  0  0
    0.7456    0.1636    0.2490 C   0  0  0  0  0  0  0  0  0  0  0  0
   -0.3323    1.1287   -0.2342 C   0  0  0  0  0  0  0  0  0  0  0  0
   -1.6340    0.5079    0.2628 C   0  0  0  0  0  0  0  0  0  0  0  0
   -1.3579   -0.9884    0.4196 C   0  0  0  0  0  0  0  0  0  0  0  0
    0.0965   -1.1957    0.0094 C   0  0  0  0  0  0  0  0  0  0  0  0
  1  2  1  0
  2  3  1  0
  3  4  1  0
  4  5  1  0
  5  6  1  0
  6  2  1  0
M  END
>  <target>  (1103) 
-3.3

$$$$

     RDKit          3D

  7  6  0  0  0  0  0  0  0  0999 V2000
   -1.7503   -0.4083   -0.9810 C   0  0  0  0  0  0  0  0  0  0  0  0
   -1.1638    0.0584    0.3519 C   0  0  0  0  0  0  0  0  0  0  0  0
   -2.0022    1.2129    0.9079 C   0  0  0  0  0  0  0  0  0  0  0  0
    0.3093    0.4991    0.2243 C   0  0  0  0  0  0  0  0  0  0  0  0
    1.2690   -0.6086   -0.2270 C   0  0  0  0  0  0  0  0  0  0  0  0
    2.7057   -0.1029   -0.2744 C   0  0  0  0  0  0  0  0  0  0  0  0
    1.1945   -1.6963    0.6893 O   0  0  0  0  0  0  0  0  0  0  0  0
  1  2  1  0
  2  3  1  0
  2  4  1  0
  4  5  1  0
  5  6  1  0
  5  7  1  0
M  END
>  <target>  (1104) 
-0.8

$$$$

     RDKit          3D

 19 21  0  0  0  0  0  0  0  0999 V2000
   -0.1480    0.5925   -1.8378 O   0  0  0  0  0  0  0  0  0  0  0  0
   -1.2404    0.4858   -1.0146 C   0  0  0  0  0  0  0  0  0  0  0  0
   -2.1565    1.5405   -1.0816 C   0  0  0  0  0  0  0  0  0  0  0  0
   -3.3339    1.4919   -0.3397 C   0  0  0  0  0  0  0  0  0  0  0  0
   -3.5939    0.4048    0.4908 C   0  0  0  0  0  0  0  0  0  0  0  0
   -4.8250    0.3019    1.1492 N   0  0  0  0  0  0  0  0  0  0  0  0
   -2.7076   -0.6817    0.4790 C   0  0  0  0  0  0  0  0  0  0  0  0
   -1.5012   -0.6552   -0.2480 C   0  0  0  0  0  0  0  0  0  0  0  0
   -0.6240   -1.7867   -0.2365 N   0  0  0  0  0  0  0  0  0  0  0  0
   -1.2004   -3.0987    0.0420 C   0  0  0  0  0  0  0  0  0  0  0  0
    0.7730   -1.7407   -0.3621 C   0  0  0  0  0  0  0  0  0  0  0  0
    1.4701   -2.7591   -0.3268 O   0  0  0  0  0  0  0  0  0  0  0  0
    1.5005   -0.4537   -0.4276 C   0  0  0  0  0  0  0  0  0  0  0  0
    2.7463   -0.3599    0.2154 C   0  0  0  0  0  0  0  0  0  0  0  0
    3.5036    0.8187    0.1522 C   0  0  0  0  0  0  0  0  0  0  0  0
    4.8420    0.8953    0.8244 C   0  0  0  0  0  0  0  0  0  0  0  0
    3.0237    1.8940   -0.6026 C   0  0  0  0  0  0  0  0  0  0  0  0
    1.7949    1.8004   -1.2567 C   0  0  0  0  0  0  0  0  0  0  0  0
    1.0330    0.6337   -1.1521 C   0  0  0  0  0  0  0  0  0  0  0  0
  1  2  1  0
  2  3  2  0
  3  4  1  0
  4  5  2  0
  5  6  1  0
  5  7  1  0
  7  8  2  0
  8  9  1  0
  9 10  1  0
  9 11  1  0
 11 12  2  0
 11 13  1  0
 13 14  2  0
 14 15  1  0
 15 16  1  0
 15 17  2  0
 17 18  1  0
 18 19  2  0
  8  2  1  0
 19  1  1  0
 19 13  1  0
M  END
>  <target>  (1105) 
-3.928

$$$$

     RDKit          3D

  6  5  0  0  0  0  0  0  0  0999 V2000
    0.1592   -0.1870    1.5489 C   0  0  0  0  0  0  0  0  0  0  0  0
    0.1481    0.1044    0.0388 C   0  0  0  0  0  0  0  0  0  0  0  0
    1.1749   -0.8087   -0.6520 C   0  0  0  0  0  0  0  0  0  0  0  0
    0.5380    1.5723   -0.1959 C   0  0  0  0  0  0  0  0  0  0  0  0
   -1.2593   -0.1392   -0.5418 C   0  0  0  0  0  0  0  0  0  0  0  0
   -1.6652   -1.4881   -0.3481 O   0  0  0  0  0  0  0  0  0  0  0  0
  1  2  1  0
  2  3  1  0
  2  4  1  0
  2  5  1  0
  5  6  1  0
M  END
>  <target>  (1106) 
-0.4

$$$$

     RDKit          3D

 20 21  0  0  0  0  0  0  0  0999 V2000
   -1.1201   -1.6481    0.9231 C   0  0  0  0  0  0  0  0  0  0  0  0
   -1.7196   -0.8807   -0.2627 C   0  0  0  0  0  0  0  0  0  0  0  0
   -2.7876    0.1045    0.2259 C   0  0  0  0  0  0  0  0  0  0  0  0
   -2.3939   -1.8905   -1.2105 C   0  0  0  0  0  0  0  0  0  0  0  0
   -0.5872   -0.1501   -1.0187 C   0  0  0  0  0  0  0  0  0  0  0  0
   -0.2285   -0.5242   -2.1422 O   0  0  0  0  0  0  0  0  0  0  0  0
    0.1150    1.0289   -0.3267 C   0  0  0  0  0  0  0  0  0  0  0  0
    1.5320    1.0415   -0.5515 O   0  0  0  0  0  0  0  0  0  0  0  0
    2.1719    0.1387    0.2513 C   0  0  0  0  0  0  0  0  0  0  0  0
    2.4146    0.4300    1.5933 C   0  0  0  0  0  0  0  0  0  0  0  0
    3.0877   -0.5001    2.3874 C   0  0  0  0  0  0  0  0  0  0  0  0
    3.5263   -1.7012    1.8281 C   0  0  0  0  0  0  0  0  0  0  0  0
    4.3523   -2.8475    2.8094 Cl  0  0  0  0  0  0  0  0  0  0  0  0
    3.3064   -1.9762    0.4784 C   0  0  0  0  0  0  0  0  0  0  0  0
    2.6346   -1.0469   -0.3169 C   0  0  0  0  0  0  0  0  0  0  0  0
   -0.4154    2.2747   -0.8692 N   0  0  0  0  0  0  0  0  0  0  0  0
   -0.2697    2.7683   -2.1299 C   0  0  0  0  0  0  0  0  0  0  0  0
   -0.9075    3.9119   -2.2289 N   0  0  0  0  0  0  0  0  0  0  0  0
   -1.4279    4.0867   -0.9795 C   0  0  0  0  0  0  0  0  0  0  0  0
   -1.1610    3.1089   -0.1086 N   0  0  0  0  0  0  0  0  0  0  0  0
  1  2  1  0
  2  3  1  0
  2  4  1  0
  2  5  1  0
  5  6  2  0
  5  7  1  0
  7  8  1  0
  8  9  1  0
  9 10  2  0
 10 11  1  0
 11 12  2  0
 12 13  1  0
 12 14  1  0
 14 15  2  0
  7 16  1  0
 16 17  1  0
 17 18  2  0
 18 19  1  0
 19 20  2  0
 15  9  1  0
 20 16  1  0
M  END
>  <target>  (1107) 
-3.61

$$$$

     RDKit          3D

 17 18  0  0  0  0  0  0  0  0999 V2000
    6.5549   -0.2201    0.4640 C   0  0  0  0  0  0  0  0  0  0  0  0
    5.1011   -0.2423    0.2272 C   0  0  0  0  0  0  0  0  0  0  0  0
    4.0025   -0.4453    1.0228 C   0  0  0  0  0  0  0  0  0  0  0  0
    2.8967   -0.3295    0.1428 C   0  0  0  0  0  0  0  0  0  0  0  0
    3.3118   -0.0711   -1.1110 N   0  0  0  0  0  0  0  0  0  0  0  0
    4.6929   -0.0179   -1.0495 O   0  0  0  0  0  0  0  0  0  0  0  0
    1.4796   -0.4605    0.4773 C   0  0  0  0  0  0  0  0  0  0  0  0
    1.0821   -0.6964    1.6175 O   0  0  0  0  0  0  0  0  0  0  0  0
    0.6236   -0.2973   -0.6073 N   0  0  0  0  0  0  0  0  0  0  0  0
   -0.7671   -0.5218   -0.4693 N   0  0  0  0  0  0  0  0  0  0  0  0
   -1.4868    0.7498   -0.3261 C   0  0  0  0  0  0  0  0  0  0  0  0
   -2.9555    0.5100   -0.0730 C   0  0  0  0  0  0  0  0  0  0  0  0
   -3.4684    0.5401    1.2320 C   0  0  0  0  0  0  0  0  0  0  0  0
   -4.8241    0.3025    1.4651 C   0  0  0  0  0  0  0  0  0  0  0  0
   -5.6780    0.0254    0.3989 C   0  0  0  0  0  0  0  0  0  0  0  0
   -5.1773   -0.0190   -0.9009 C   0  0  0  0  0  0  0  0  0  0  0  0
   -3.8222    0.2184   -1.1362 C   0  0  0  0  0  0  0  0  0  0  0  0
  1  2  1  0
  2  3  2  0
  3  4  1  0
  4  5  2  0
  5  6  1  0
  4  7  1  0
  7  8  2  0
  7  9  1  0
  9 10  1  0
 10 11  1  0
 11 12  1  0
 12 13  2  0
 13 14  1  0
 14 15  2  0
 15 16  1  0
 16 17  2  0
  6  2  1  0
 17 12  1  0
M  END
>  <target>  (1108) 
-2.461

$$$$

     RDKit          3D

  3  2  0  0  0  0  0  0  0  0999 V2000
   -1.1319    0.0515    0.0795 C   0  0  0  0  0  0  0  0  0  0  0  0
    0.2863    0.4259   -0.2012 C   0  0  0  0  0  0  0  0  0  0  0  0
    1.3350   -0.3719    0.0346 C   0  0  0  0  0  0  0  0  0  0  0  0
  1  2  1  0
  2  3  2  0
M  END
>  <target>  (1109) 
-1.08

$$$$

     RDKit          3D

 17 18  0  0  0  0  0  0  0  0999 V2000
   -1.3483   -1.6410   -1.6521 O   0  0  0  0  0  0  0  0  0  0  0  0
   -1.8872   -0.6835   -0.8414 C   0  0  0  0  0  0  0  0  0  0  0  0
   -3.0287   -0.0472   -1.3301 C   0  0  0  0  0  0  0  0  0  0  0  0
   -3.6440    0.9562   -0.5838 C   0  0  0  0  0  0  0  0  0  0  0  0
   -3.1127    1.3135    0.6513 C   0  0  0  0  0  0  0  0  0  0  0  0
   -3.8629    2.5542    1.5783 Cl  0  0  0  0  0  0  0  0  0  0  0  0
   -1.9775    0.6697    1.1475 C   0  0  0  0  0  0  0  0  0  0  0  0
   -1.3488   -0.3499    0.4088 C   0  0  0  0  0  0  0  0  0  0  0  0
   -0.1346   -1.0361    0.9920 C   0  0  0  0  0  0  0  0  0  0  0  0
    1.1779   -0.4232    0.5590 C   0  0  0  0  0  0  0  0  0  0  0  0
    1.7107    0.6610    1.2768 C   0  0  0  0  0  0  0  0  0  0  0  0
    2.9159    1.2444    0.8848 C   0  0  0  0  0  0  0  0  0  0  0  0
    3.5543    2.5684    1.7789 Cl  0  0  0  0  0  0  0  0  0  0  0  0
    3.6065    0.7628   -0.2248 C   0  0  0  0  0  0  0  0  0  0  0  0
    3.0879   -0.3093   -0.9515 C   0  0  0  0  0  0  0  0  0  0  0  0
    1.8820   -0.8909   -0.5579 C   0  0  0  0  0  0  0  0  0  0  0  0
    1.3612   -1.9336   -1.2749 O   0  0  0  0  0  0  0  0  0  0  0  0
  1  2  1  0
  2  3  2  0
  3  4  1  0
  4  5  2  0
  5  6  1  0
  5  7  1  0
  7  8  2  0
  8  9  1  0
  9 10  1  0
 10 11  2  0
 11 12  1  0
 12 13  1  0
 12 14  2  0
 14 15  1  0
 15 16  2  0
 16 17  1  0
  8  2  1  0
 16 10  1  0
M  END
>  <target>  (1110) 
-3.9530000000000003

$$$$

     RDKit          3D

 22 23  0  0  0  0  0  0  0  0999 V2000
   -7.5093   -0.9647    1.3152 C   0  0  0  0  0  0  0  0  0  0  0  0
   -6.7659   -0.2962    0.1751 C   0  0  0  0  0  0  0  0  0  0  0  0
   -5.3823   -0.2037    0.5374 O   0  0  0  0  0  0  0  0  0  0  0  0
   -4.5939    0.3799   -0.4069 C   0  0  0  0  0  0  0  0  0  0  0  0
   -5.0094    0.7999   -1.4753 O   0  0  0  0  0  0  0  0  0  0  0  0
   -3.3138    0.3983    0.0691 N   0  0  0  0  0  0  0  0  0  0  0  0
   -2.1558    0.8981   -0.5510 C   0  0  0  0  0  0  0  0  0  0  0  0
   -2.1447    1.4720   -1.8263 C   0  0  0  0  0  0  0  0  0  0  0  0
   -0.9540    1.9593   -2.3790 C   0  0  0  0  0  0  0  0  0  0  0  0
    0.2376    1.8759   -1.6640 C   0  0  0  0  0  0  0  0  0  0  0  0
    0.2272    1.2857   -0.4034 C   0  0  0  0  0  0  0  0  0  0  0  0
    1.3899    1.2376    0.3793 O   0  0  0  0  0  0  0  0  0  0  0  0
    2.4460    0.4802   -0.1243 C   0  0  0  0  0  0  0  0  0  0  0  0
    2.4004   -0.1791   -1.1525 O   0  0  0  0  0  0  0  0  0  0  0  0
    3.5062    0.6152    0.7347 N   0  0  0  0  0  0  0  0  0  0  0  0
    4.7875    0.0455    0.6385 C   0  0  0  0  0  0  0  0  0  0  0  0
    5.7014    0.3503    1.6560 C   0  0  0  0  0  0  0  0  0  0  0  0
    6.9966   -0.1742    1.6325 C   0  0  0  0  0  0  0  0  0  0  0  0
    7.3897   -1.0092    0.5906 C   0  0  0  0  0  0  0  0  0  0  0  0
    6.4880   -1.3181   -0.4250 C   0  0  0  0  0  0  0  0  0  0  0  0
    5.1914   -0.7932   -0.4018 C   0  0  0  0  0  0  0  0  0  0  0  0
   -0.9561    0.8117    0.1647 C   0  0  0  0  0  0  0  0  0  0  0  0
  1  2  1  0
  2  3  1  0
  3  4  1  0
  4  5  2  0
  4  6  1  0
  6  7  1  0
  7  8  2  0
  8  9  1  0
  9 10  2  0
 10 11  1  0
 11 12  1  0
 12 13  1  0
 13 14  2  0
 13 15  1  0
 15 16  1  0
 16 17  2  0
 17 18  1  0
 18 19  2  0
 19 20  1  0
 20 21  2  0
 11 22  2  0
 21 16  1  0
 22  7  1  0
M  END
>  <target>  (1111) 
-4.632

$$$$

     RDKit          3D

 16 18  0  0  0  0  0  0  0  0999 V2000
   -0.0649    1.8747    1.9009 O   0  0  0  0  0  0  0  0  0  0  0  0
   -0.0351    1.0144    1.0285 C   0  0  0  0  0  0  0  0  0  0  0  0
    1.2559    0.5121    0.5171 C   0  0  0  0  0  0  0  0  0  0  0  0
    2.4527    1.0245    1.0345 C   0  0  0  0  0  0  0  0  0  0  0  0
    3.6779    0.5557    0.5571 C   0  0  0  0  0  0  0  0  0  0  0  0
    3.7118   -0.4232   -0.4355 C   0  0  0  0  0  0  0  0  0  0  0  0
    2.5206   -0.9353   -0.9527 C   0  0  0  0  0  0  0  0  0  0  0  0
    1.2898   -0.4664   -0.4752 C   0  0  0  0  0  0  0  0  0  0  0  0
    0.0351   -1.0144   -1.0285 C   0  0  0  0  0  0  0  0  0  0  0  0
    0.0649   -1.8747   -1.9009 O   0  0  0  0  0  0  0  0  0  0  0  0
   -1.2559   -0.5121   -0.5171 C   0  0  0  0  0  0  0  0  0  0  0  0
   -2.4527   -1.0245   -1.0345 C   0  0  0  0  0  0  0  0  0  0  0  0
   -3.6779   -0.5557   -0.5571 C   0  0  0  0  0  0  0  0  0  0  0  0
   -3.7118    0.4232    0.4355 C   0  0  0  0  0  0  0  0  0  0  0  0
   -2.5206    0.9353    0.9527 C   0  0  0  0  0  0  0  0  0  0  0  0
   -1.2898    0.4664    0.4751 C   0  0  0  0  0  0  0  0  0  0  0  0
  1  2  2  0
  2  3  1  0
  3  4  2  0
  4  5  1  0
  5  6  2  0
  6  7  1  0
  7  8  2  0
  8  9  1  0
  9 10  2  0
  9 11  1  0
 11 12  2  0
 12 13  1  0
 13 14  2  0
 14 15  1  0
 15 16  2  0
 16  2  1  0
  8  3  1  0
 16 11  1  0
M  END
>  <target>  (1112) 
-5.19

$$$$

     RDKit          3D

  9  8  0  0  0  0  0  0  0  0999 V2000
   -3.8187    0.9307   -0.7872 C   0  0  0  0  0  0  0  0  0  0  0  0
   -3.4136   -0.4844   -0.4045 C   0  0  0  0  0  0  0  0  0  0  0  0
   -2.1202   -0.5507    0.4104 C   0  0  0  0  0  0  0  0  0  0  0  0
   -0.8859   -0.0986   -0.3732 C   0  0  0  0  0  0  0  0  0  0  0  0
    0.3915   -0.2846    0.4498 C   0  0  0  0  0  0  0  0  0  0  0  0
    1.6279    0.1720   -0.3321 C   0  0  0  0  0  0  0  0  0  0  0  0
    2.9141    0.0282    0.4879 C   0  0  0  0  0  0  0  0  0  0  0  0
    4.1250    0.5442   -0.2776 C   0  0  0  0  0  0  0  0  0  0  0  0
    3.1329   -1.3400    0.8208 O   0  0  0  0  0  0  0  0  0  0  0  0
  1  2  1  0
  2  3  1  0
  3  4  1  0
  4  5  1  0
  5  6  1  0
  6  7  1  0
  7  8  1  0
  7  9  1  0
M  END
>  <target>  (1113) 
-2.09

$$$$

     RDKit          3D

 18 19  0  0  0  0  0  0  0  0999 V2000
   -2.1101   -2.2566   -1.2031 C   0  0  0  0  0  0  0  0  0  0  0  0
   -2.3749   -0.8431   -0.7501 C   0  0  0  0  0  0  0  0  0  0  0  0
   -1.3948    0.0386   -0.4501 C   0  0  0  0  0  0  0  0  0  0  0  0
    0.0463   -0.2763   -0.6598 C   0  0  0  0  0  0  0  0  0  0  0  0
    0.3876   -0.8941   -1.6639 O   0  0  0  0  0  0  0  0  0  0  0  0
    0.8814    0.1540    0.3523 N   0  0  0  0  0  0  0  0  0  0  0  0
    2.2801   -0.0122    0.4451 C   0  0  0  0  0  0  0  0  0  0  0  0
    3.0557   -0.6913   -0.4958 C   0  0  0  0  0  0  0  0  0  0  0  0
    4.4387   -0.8102   -0.3211 C   0  0  0  0  0  0  0  0  0  0  0  0
    5.0571   -0.2515    0.7947 C   0  0  0  0  0  0  0  0  0  0  0  0
    4.2934    0.4283    1.7388 C   0  0  0  0  0  0  0  0  0  0  0  0
    2.9122    0.5469    1.5644 C   0  0  0  0  0  0  0  0  0  0  0  0
   -1.7904    1.5926    0.1743 S   0  0  0  0  0  0  0  0  0  0  0  0
   -1.1056    1.7655    1.4469 O   0  0  0  0  0  0  0  0  0  0  0  0
   -1.6396    2.5919   -0.8666 O   0  0  0  0  0  0  0  0  0  0  0  0
   -3.5141    1.4732    0.5318 C   0  0  0  0  0  0  0  0  0  0  0  0
   -4.1569    0.7575   -0.6203 C   0  0  0  0  0  0  0  0  0  0  0  0
   -3.7332   -0.6043   -0.6408 O   0  0  0  0  0  0  0  0  0  0  0  0
  1  2  1  0
  2  3  2  0
  3  4  1  0
  4  5  2  0
  4  6  1  0
  6  7  1  0
  7  8  2  0
  8  9  1  0
  9 10  2  0
 10 11  1  0
 11 12  2  0
  3 13  1  0
 13 14  2  0
 13 15  2  0
 13 16  1  0
 16 17  1  0
 17 18  1  0
 18  2  1  0
 12  7  1  0
M  END
>  <target>  (1114) 
-2.281

$$$$

     RDKit          3D

 10 10  0  0  0  0  0  0  0  0999 V2000
    3.7296    0.4449    0.6636 C   0  0  0  0  0  0  0  0  0  0  0  0
    2.7542   -0.1639   -0.3312 C   0  0  0  0  0  0  0  0  0  0  0  0
    1.3039    0.0961    0.0756 C   0  0  0  0  0  0  0  0  0  0  0  0
    0.3274   -0.5189   -0.9292 C   0  0  0  0  0  0  0  0  0  0  0  0
   -1.1072   -0.2682   -0.5372 C   0  0  0  0  0  0  0  0  0  0  0  0
   -1.7849   -1.1702    0.2937 C   0  0  0  0  0  0  0  0  0  0  0  0
   -3.1074   -0.9291    0.6694 C   0  0  0  0  0  0  0  0  0  0  0  0
   -3.7624    0.2169    0.2224 C   0  0  0  0  0  0  0  0  0  0  0  0
   -3.0952    1.1238   -0.5989 C   0  0  0  0  0  0  0  0  0  0  0  0
   -1.7727    0.8843   -0.9756 C   0  0  0  0  0  0  0  0  0  0  0  0
  1  2  1  0
  2  3  1  0
  3  4  1  0
  4  5  1  0
  5  6  2  0
  6  7  1  0
  7  8  2  0
  8  9  1  0
  9 10  2  0
 10  5  1  0
M  END
>  <target>  (1115) 
-4.06

$$$$

     RDKit          3D

  8  8  0  0  0  0  0  0  0  0999 V2000
    2.3484    0.2934   -0.0004 O   0  0  0  0  0  0  0  0  0  0  0  0
    1.1385    0.1414   -0.0188 C   0  0  0  0  0  0  0  0  0  0  0  0
    0.5050   -1.0600    0.0261 N   0  0  0  0  0  0  0  0  0  0  0  0
   -0.8354   -0.8819    0.0396 C   0  0  0  0  0  0  0  0  0  0  0  0
   -1.7100   -1.7157    0.1019 O   0  0  0  0  0  0  0  0  0  0  0  0
   -1.0267    0.6497   -0.0301 C   0  0  0  0  0  0  0  0  0  0  0  0
   -2.0800    1.2453   -0.0328 O   0  0  0  0  0  0  0  0  0  0  0  0
    0.2290    1.1496   -0.0744 N   0  0  0  0  0  0  0  0  0  0  0  0
  1  2  2  0
  2  3  1  0
  3  4  1  0
  4  5  2  0
  4  6  1  0
  6  7  2  0
  6  8  1  0
  8  2  1  0
M  END
>  <target>  (1116) 
-0.4

$$$$

     RDKit          3D

 27 28  0  0  0  0  0  0  0  0999 V2000
    4.3847   -2.1461    2.9011 C   0  0  0  0  0  0  0  0  0  0  0  0
    4.1502   -1.4817    1.6757 O   0  0  0  0  0  0  0  0  0  0  0  0
    5.3510   -0.6027    1.0346 P   0  0  0  0  0  0  0  0  0  0  0  0
    6.0167    0.8792    2.0983 S   0  0  0  0  0  0  0  0  0  0  0  0
    6.4312   -1.7680    0.7067 O   0  0  0  0  0  0  0  0  0  0  0  0
    7.5729   -1.4273   -0.0549 C   0  0  0  0  0  0  0  0  0  0  0  0
    4.7890   -0.2759   -0.4436 O   0  0  0  0  0  0  0  0  0  0  0  0
    3.6928    0.4795   -0.7472 C   0  0  0  0  0  0  0  0  0  0  0  0
    2.7952    0.9901    0.1861 C   0  0  0  0  0  0  0  0  0  0  0  0
    1.7072    1.7611   -0.2401 C   0  0  0  0  0  0  0  0  0  0  0  0
    1.4965    2.0059   -1.6010 C   0  0  0  0  0  0  0  0  0  0  0  0
    0.1182    2.9815   -2.1743 S   0  0  0  0  0  0  0  0  0  0  0  0
   -1.2781    2.1591   -1.4279 C   0  0  0  0  0  0  0  0  0  0  0  0
   -1.4446    0.7720   -1.4988 C   0  0  0  0  0  0  0  0  0  0  0  0
   -2.5527    0.1542   -0.9081 C   0  0  0  0  0  0  0  0  0  0  0  0
   -3.5080    0.9239   -0.2505 C   0  0  0  0  0  0  0  0  0  0  0  0
   -4.6283    0.4251    0.3512 O   0  0  0  0  0  0  0  0  0  0  0  0
   -4.9673   -1.1353    0.5979 P   0  0  0  0  0  0  0  0  0  0  0  0
   -3.7823   -2.1517    1.7480 S   0  0  0  0  0  0  0  0  0  0  0  0
   -6.5116   -1.0556    1.0901 O   0  0  0  0  0  0  0  0  0  0  0  0
   -6.7836   -0.4577    2.3425 C   0  0  0  0  0  0  0  0  0  0  0  0
   -5.1457   -1.7241   -0.9013 O   0  0  0  0  0  0  0  0  0  0  0  0
   -6.1307   -1.1664   -1.7473 C   0  0  0  0  0  0  0  0  0  0  0  0
   -3.3600    2.3102   -0.1949 C   0  0  0  0  0  0  0  0  0  0  0  0
   -2.2508    2.9260   -0.7808 C   0  0  0  0  0  0  0  0  0  0  0  0
    2.4012    1.4901   -2.5320 C   0  0  0  0  0  0  0  0  0  0  0  0
    3.4921    0.7285   -2.1057 C   0  0  0  0  0  0  0  0  0  0  0  0
  1  2  1  0
  2  3  1  0
  3  4  2  0
  3  5  1  0
  5  6  1  0
  3  7  1  0
  7  8  1  0
  8  9  2  0
  9 10  1  0
 10 11  2  0
 11 12  1  0
 12 13  1  0
 13 14  2  0
 14 15  1  0
 15 16  2  0
 16 17  1  0
 17 18  1  0
 18 19  2  0
 18 20  1  0
 20 21  1  0
 18 22  1  0
 22 23  1  0
 16 24  1  0
 24 25  2  0
 11 26  1  0
 26 27  2  0
 27  8  1  0
 25 13  1  0
M  END
>  <target>  (1117) 
-6.237

$$$$

     RDKit          3D

 22 24  0  0  0  0  0  0  0  0999 V2000
    4.0908    1.1859    1.2356 N   0  0  0  0  0  0  0  0  0  0  0  0
    4.1696   -0.4938    1.1229 S   0  0  0  0  0  0  0  0  0  0  0  0
    4.9051   -0.7352   -0.0960 O   0  0  0  0  0  0  0  0  0  0  0  0
    4.6197   -0.9245    2.4253 O   0  0  0  0  0  0  0  0  0  0  0  0
    2.4995   -1.0124    0.8943 C   0  0  0  0  0  0  0  0  0  0  0  0
    1.4598   -0.0666    0.8740 C   0  0  0  0  0  0  0  0  0  0  0  0
    0.1191   -0.4581    0.6891 C   0  0  0  0  0  0  0  0  0  0  0  0
   -0.1444   -1.8272    0.5090 C   0  0  0  0  0  0  0  0  0  0  0  0
    0.8899   -2.7682    0.5312 C   0  0  0  0  0  0  0  0  0  0  0  0
    2.2148   -2.3671    0.7256 C   0  0  0  0  0  0  0  0  0  0  0  0
    3.4142   -3.6078    0.7403 Cl  0  0  0  0  0  0  0  0  0  0  0  0
   -0.9997    0.5719    0.6494 C   0  0  0  0  0  0  0  0  0  0  0  0
   -0.6036    1.7923    1.2318 O   0  0  0  0  0  0  0  0  0  0  0  0
   -2.1554    0.1660    1.3920 N   0  0  0  0  0  0  0  0  0  0  0  0
   -3.2810    0.0533    0.6064 C   0  0  0  0  0  0  0  0  0  0  0  0
   -4.3666   -0.3665    0.9488 O   0  0  0  0  0  0  0  0  0  0  0  0
   -2.9159    0.5177   -0.7355 C   0  0  0  0  0  0  0  0  0  0  0  0
   -3.7064    0.6486   -1.8609 C   0  0  0  0  0  0  0  0  0  0  0  0
   -3.0908    1.1243   -3.0197 C   0  0  0  0  0  0  0  0  0  0  0  0
   -1.7215    1.4525   -3.0224 C   0  0  0  0  0  0  0  0  0  0  0  0
   -0.9429    1.3090   -1.8679 C   0  0  0  0  0  0  0  0  0  0  0  0
   -1.5555    0.8307   -0.7207 C   0  0  0  0  0  0  0  0  0  0  0  0
  1  2  1  0
  2  3  2  0
  2  4  2  0
  2  5  1  0
  5  6  2  0
  6  7  1  0
  7  8  2  0
  8  9  1  0
  9 10  2  0
 10 11  1  0
  7 12  1  0
 12 13  1  0
 12 14  1  0
 14 15  1  0
 15 16  2  0
 15 17  1  0
 17 18  2  0
 18 19  1  0
 19 20  2  0
 20 21  1  0
 21 22  2  0
 10  5  1  0
 22 12  1  0
 22 17  1  0
M  END
>  <target>  (1118) 
-3.451

$$$$

     RDKit          3D

  8  7  0  0  0  0  0  0  0  0999 V2000
   -2.5750   -0.8477    0.1341 C   0  0  0  0  0  0  0  0  0  0  0  0
   -1.2841   -0.2406   -0.4110 C   0  0  0  0  0  0  0  0  0  0  0  0
   -1.4661    1.2577   -0.6634 C   0  0  0  0  0  0  0  0  0  0  0  0
   -0.1192   -0.5075    0.5505 C   0  0  0  0  0  0  0  0  0  0  0  0
    1.0979   -0.0367   -0.0457 O   0  0  0  0  0  0  0  0  0  0  0  0
    2.2025   -0.2042    0.7314 C   0  0  0  0  0  0  0  0  0  0  0  0
    2.2186   -0.7075    1.8456 O   0  0  0  0  0  0  0  0  0  0  0  0
    3.4121    0.3212    0.0211 C   0  0  0  0  0  0  0  0  0  0  0  0
  1  2  1  0
  2  3  1  0
  2  4  1  0
  4  5  1  0
  5  6  1  0
  6  7  2  0
  6  8  1  0
M  END
>  <target>  (1119) 
-1.21

$$$$

     RDKit          3D

  7  6  0  0  0  0  0  0  0  0999 V2000
    1.5614   -0.7422   -1.1221 C   0  0  0  0  0  0  0  0  0  0  0  0
    0.8213   -0.4986    0.2018 C   0  0  0  0  0  0  0  0  0  0  0  0
    1.7047    0.3896    1.0909 C   0  0  0  0  0  0  0  0  0  0  0  0
   -0.6450    0.0364    0.0232 C   0  0  0  0  0  0  0  0  0  0  0  0
   -1.3359    0.1712    1.3978 C   0  0  0  0  0  0  0  0  0  0  0  0
   -1.4791   -0.9592   -0.8125 C   0  0  0  0  0  0  0  0  0  0  0  0
   -0.6933    1.4084   -0.6753 C   0  0  0  0  0  0  0  0  0  0  0  0
  1  2  1  0
  2  3  1  0
  2  4  1  0
  4  5  1  0
  4  6  1  0
  4  7  1  0
M  END
>  <target>  (1120) 
-4.36

$$$$

     RDKit          3D

 19 20  0  0  0  0  0  0  0  0999 V2000
   -5.2695    0.1208    0.2874 Cl  0  0  0  0  0  0  0  0  0  0  0  0
   -3.5397    0.1228    0.2447 C   0  0  0  0  0  0  0  0  0  0  0  0
   -2.9287   -0.7103   -0.6947 C   0  0  0  0  0  0  0  0  0  0  0  0
   -1.5387   -0.7627   -0.7879 C   0  0  0  0  0  0  0  0  0  0  0  0
   -0.7310    0.0181    0.0568 C   0  0  0  0  0  0  0  0  0  0  0  0
   -1.3577    0.8600    1.0067 C   0  0  0  0  0  0  0  0  0  0  0  0
   -0.3607    1.8298    2.0573 Cl  0  0  0  0  0  0  0  0  0  0  0  0
   -2.7620    0.9141    1.1025 C   0  0  0  0  0  0  0  0  0  0  0  0
   -3.5312    1.9474    2.2696 Cl  0  0  0  0  0  0  0  0  0  0  0  0
    0.7410   -0.0722   -0.0788 C   0  0  0  0  0  0  0  0  0  0  0  0
    1.4765   -1.0107    0.6728 C   0  0  0  0  0  0  0  0  0  0  0  0
    0.7016   -2.1095    1.7648 Cl  0  0  0  0  0  0  0  0  0  0  0  0
    2.8649   -1.0948    0.5657 C   0  0  0  0  0  0  0  0  0  0  0  0
    3.5537   -0.2434   -0.2976 C   0  0  0  0  0  0  0  0  0  0  0  0
    5.2732   -0.4212   -0.3676 Cl  0  0  0  0  0  0  0  0  0  0  0  0
    2.8593    0.7007   -1.0655 C   0  0  0  0  0  0  0  0  0  0  0  0
    3.7277    1.7508   -2.1441 Cl  0  0  0  0  0  0  0  0  0  0  0  0
    1.4564    0.7830   -0.9543 C   0  0  0  0  0  0  0  0  0  0  0  0
    0.5723    1.9480   -1.9064 Cl  0  0  0  0  0  0  0  0  0  0  0  0
  1  2  1  0
  2  3  2  0
  3  4  1  0
  4  5  2  0
  5  6  1  0
  6  7  1  0
  6  8  2  0
  8  9  1  0
  5 10  1  0
 10 11  2  0
 11 12  1  0
 11 13  1  0
 13 14  2  0
 14 15  1  0
 14 16  1  0
 16 17  1  0
 16 18  2  0
 18 19  1  0
  8  2  1  0
 18 10  1  0
M  END
>  <target>  (1121) 
-7.66

$$$$

     RDKit          3D

 10 10  0  0  0  0  0  0  0  0999 V2000
    3.1022   -1.7458   -0.0786 N   0  0  0  0  0  0  0  0  0  0  0  0
    2.0633   -1.2304   -0.0585 C   0  0  0  0  0  0  0  0  0  0  0  0
    0.7656   -0.6182   -0.0362 C   0  0  0  0  0  0  0  0  0  0  0  0
   -0.3683   -1.4385   -0.1378 C   0  0  0  0  0  0  0  0  0  0  0  0
   -1.6477   -0.8804   -0.1198 C   0  0  0  0  0  0  0  0  0  0  0  0
   -1.8044    0.4986   -0.0005 C   0  0  0  0  0  0  0  0  0  0  0  0
   -0.6819    1.3223    0.1012 C   0  0  0  0  0  0  0  0  0  0  0  0
    0.6079    0.7701    0.0840 C   0  0  0  0  0  0  0  0  0  0  0  0
    1.7360    1.6506    0.1909 C   0  0  0  0  0  0  0  0  0  0  0  0
    2.6334    2.3801    0.2785 N   0  0  0  0  0  0  0  0  0  0  0  0
  1  2  3  0
  2  3  1  0
  3  4  2  0
  4  5  1  0
  5  6  2  0
  6  7  1  0
  7  8  2  0
  8  9  1  0
  9 10  3  0
  8  3  1  0
M  END
>  <target>  (1122) 
-2.38

$$$$

     RDKit          3D

 10 10  0  0  0  0  0  0  0  0999 V2000
    2.3832   -0.8576    0.2444 C   0  0  0  0  0  0  0  0  0  0  0  0
    1.0667   -0.1593    0.0654 C   0  0  0  0  0  0  0  0  0  0  0  0
    1.0133    1.2380   -0.0333 C   0  0  0  0  0  0  0  0  0  0  0  0
   -0.2104    1.8984   -0.1688 C   0  0  0  0  0  0  0  0  0  0  0  0
   -1.3998    1.1707   -0.1970 C   0  0  0  0  0  0  0  0  0  0  0  0
   -1.3543   -0.2245   -0.0838 C   0  0  0  0  0  0  0  0  0  0  0  0
   -0.1281   -0.8918    0.0523 C   0  0  0  0  0  0  0  0  0  0  0  0
   -2.6033   -0.9958   -0.1045 N   0  0  0  0  0  0  0  0  0  0  0  0
   -2.5231   -2.2285   -0.0003 O   0  0  0  0  0  0  0  0  0  0  0  0
   -3.6665   -0.3700   -0.2250 O   0  0  0  0  0  0  0  0  0  0  0  0
  1  2  1  0
  2  3  2  0
  3  4  1  0
  4  5  2  0
  5  6  1  0
  6  7  2  0
  6  8  1  0
  8  9  1  0
  8 10  2  0
  7  2  1  0
M  CHG  2   8   1   9  -1
M  END
>  <target>  (1123) 
-2.44

$$$$

     RDKit          3D

  7  6  0  0  0  0  0  0  0  0999 V2000
   -1.1471    1.0029   -0.8888 F   0  0  0  0  0  0  0  0  0  0  0  0
   -0.7946   -0.0150   -0.0728 C   0  0  0  0  0  0  0  0  0  0  0  0
   -1.4283    0.1738    1.1109 F   0  0  0  0  0  0  0  0  0  0  0  0
   -1.3055   -1.1542   -0.6021 F   0  0  0  0  0  0  0  0  0  0  0  0
    0.7089   -0.1287    0.1190 C   0  0  0  0  0  0  0  0  0  0  0  0
    1.5786   -0.4233   -1.4092 Cl  0  0  0  0  0  0  0  0  0  0  0  0
    1.4381    1.4903    0.9389 Br  0  0  0  0  0  0  0  0  0  0  0  0
  1  2  1  0
  2  3  1  0
  2  4  1  0
  2  5  1  0
  5  6  1  0
  5  7  1  0
M  END
>  <target>  (1124) 
-1.71

$$$$

     RDKit          3D

 14 13  0  0  0  0  0  0  0  0999 V2000
    4.1003   -0.7253    1.4676 C   0  0  0  0  0  0  0  0  0  0  0  0
    2.8069   -0.1809    1.1700 N   0  0  0  0  0  0  0  0  0  0  0  0
    2.6003    1.1473    0.9039 C   0  0  0  0  0  0  0  0  0  0  0  0
    3.4625    2.0115    1.0098 O   0  0  0  0  0  0  0  0  0  0  0  0
    1.3169    1.4499    0.4923 O   0  0  0  0  0  0  0  0  0  0  0  0
    0.5042    0.2948    0.3526 N   0  0  0  0  0  0  0  0  0  0  0  0
   -0.7122    0.6291    0.0637 C   0  0  0  0  0  0  0  0  0  0  0  0
   -1.4528    2.1800   -0.1507 S   0  0  0  0  0  0  0  0  0  0  0  0
   -1.6901    2.5964    1.5907 C   0  0  0  0  0  0  0  0  0  0  0  0
   -1.8074   -0.3832   -0.1742 C   0  0  0  0  0  0  0  0  0  0  0  0
   -2.5469   -0.6527    0.7683 O   0  0  0  0  0  0  0  0  0  0  0  0
   -1.8785   -0.9775   -1.4371 N   0  0  0  0  0  0  0  0  0  0  0  0
   -2.8254   -2.0584   -1.6397 C   0  0  0  0  0  0  0  0  0  0  0  0
   -0.8783   -0.7830   -2.4757 C   0  0  0  0  0  0  0  0  0  0  0  0
  1  2  1  0
  2  3  1  0
  3  4  2  0
  3  5  1  0
  5  6  1  0
  6  7  2  3
  7  8  1  0
  8  9  1  0
  7 10  1  0
 10 11  2  0
 10 12  1  0
 12 13  1  0
 12 14  1  0
M  END
>  <target>  (1125) 
0.106

$$$$

     RDKit          3D

 12 11  0  0  0  0  0  0  0  0999 V2000
   -4.9551    1.4020    0.1523 C   0  0  0  0  0  0  0  0  0  0  0  0
   -3.7056    0.5423    0.0888 C   0  0  0  0  0  0  0  0  0  0  0  0
   -2.5029    1.0964    1.3369 S   0  0  0  0  0  0  0  0  0  0  0  0
   -1.1800   -0.1101    0.9892 C   0  0  0  0  0  0  0  0  0  0  0  0
    0.0070    0.1387    1.9147 C   0  0  0  0  0  0  0  0  0  0  0  0
    1.3181   -1.1005    1.6867 S   0  0  0  0  0  0  0  0  0  0  0  0
    2.0193   -0.8054   -0.2802 P   0  0  0  0  0  0  0  0  0  0  0  0
    1.1675   -1.8058   -1.7241 S   0  0  0  0  0  0  0  0  0  0  0  0
    3.6338   -0.9952   -0.2316 O   0  0  0  0  0  0  0  0  0  0  0  0
    4.1653   -2.2924   -0.0430 C   0  0  0  0  0  0  0  0  0  0  0  0
    1.9532    0.8040   -0.5093 O   0  0  0  0  0  0  0  0  0  0  0  0
    2.5231    1.3619   -1.6777 C   0  0  0  0  0  0  0  0  0  0  0  0
  1  2  1  0
  2  3  1  0
  3  4  1  0
  4  5  1  0
  5  6  1  0
  6  7  1  0
  7  8  2  0
  7  9  1  0
  9 10  1  0
  7 11  1  0
 11 12  1  0
M  END
>  <target>  (1126) 
-3.091

$$$$

     RDKit          3D

  5  4  0  0  0  0  0  0  0  0999 V2000
    1.9558    0.6531    0.2299 C   0  0  0  0  0  0  0  0  0  0  0  0
    0.9243   -0.4661    0.2383 C   0  0  0  0  0  0  0  0  0  0  0  0
   -0.4086   -0.0798   -0.4261 C   0  0  0  0  0  0  0  0  0  0  0  0
   -1.1196    1.0556    0.3117 C   0  0  0  0  0  0  0  0  0  0  0  0
   -1.3259   -1.3027   -0.5001 C   0  0  0  0  0  0  0  0  0  0  0  0
  1  2  1  0
  2  3  1  0
  3  4  1  0
  3  5  1  0
M  END
>  <target>  (1127) 
-3.18

$$$$

     RDKit          3D

 19 19  0  0  0  0  0  0  0  0999 V2000
   -0.0355    3.1444    0.3293 C   0  0  0  0  0  0  0  0  0  0  0  0
   -0.1418    1.8703    0.9303 O   0  0  0  0  0  0  0  0  0  0  0  0
    1.1034    0.8680    0.7129 P   0  0  0  0  0  0  0  0  0  0  0  0
    1.5373    0.7085   -0.7119 O   0  0  0  0  0  0  0  0  0  0  0  0
    2.2295    1.4798    1.6913 O   0  0  0  0  0  0  0  0  0  0  0  0
    3.4676    0.7996    1.7253 C   0  0  0  0  0  0  0  0  0  0  0  0
    0.6409   -0.4767    1.4692 O   0  0  0  0  0  0  0  0  0  0  0  0
   -0.2902   -1.4066    1.0522 C   0  0  0  0  0  0  0  0  0  0  0  0
   -0.6398   -2.4452    1.8202 C   0  0  0  0  0  0  0  0  0  0  0  0
    0.0068   -2.7389    3.3813 Cl  0  0  0  0  0  0  0  0  0  0  0  0
   -0.8954   -1.2370   -0.2771 C   0  0  0  0  0  0  0  0  0  0  0  0
   -1.9966   -0.3756   -0.4043 C   0  0  0  0  0  0  0  0  0  0  0  0
   -2.5957   -0.1635   -1.6503 C   0  0  0  0  0  0  0  0  0  0  0  0
   -3.9346    0.9253   -1.7202 Cl  0  0  0  0  0  0  0  0  0  0  0  0
   -2.1043   -0.8231   -2.7817 C   0  0  0  0  0  0  0  0  0  0  0  0
   -2.7979   -0.6113   -4.3496 Cl  0  0  0  0  0  0  0  0  0  0  0  0
   -1.0175   -1.6928   -2.6645 C   0  0  0  0  0  0  0  0  0  0  0  0
   -0.4166   -1.9004   -1.4200 C   0  0  0  0  0  0  0  0  0  0  0  0
    0.9246   -2.9893   -1.3455 Cl  0  0  0  0  0  0  0  0  0  0  0  0
  1  2  1  0
  2  3  1  0
  3  4  2  0
  3  5  1  0
  5  6  1  0
  3  7  1  0
  7  8  1  0
  8  9  2  3
  9 10  1  0
  8 11  1  0
 11 12  2  0
 12 13  1  0
 13 14  1  0
 13 15  2  0
 15 16  1  0
 15 17  1  0
 17 18  2  0
 18 19  1  0
 18 11  1  0
M  END
>  <target>  (1128) 
-4.522

$$$$
